data_mm257
_audit_creation_date              2015-04-20
_audit_creation_method
;
Olex2 1.2
(compiled 2015.01.26 svn.r3150 for OlexSys, GUI svn.r4998)
;
_publ_contact_author_address      ?
_publ_contact_author_email        ?
_publ_contact_author_name         ''
_publ_contact_author_phone        ?
_publ_section_references
;
Dolomanov, O.V., Bourhis, L.J., Gildea, R.J, Howard, J.A.K. & Puschmann, H.
 (2009), J. Appl. Cryst. 42, 339-341.

Sheldrick, G.M. (2008). Acta Cryst. A64, 112-122.

Sheldrick, G.M. (2015). Acta Cryst. A71, 3-8.
;
_chemical_name_common             ?
_chemical_name_systematic         ?
_chemical_formula_moiety          'C15 H21 N3 O3'
_chemical_formula_sum             'C15 H21 N3 O3'
_chemical_formula_weight          291.35
_chemical_melting_point           ?
loop_
  _atom_type_symbol
  _atom_type_description
  _atom_type_scat_dispersion_real
  _atom_type_scat_dispersion_imag
  _atom_type_scat_source
 'C' 'C' 0.0033 0.0016 'International Tables Vol C Tables 4.2.6.8 and 6.1.1.4'
 'H' 'H' 0.0000 0.0000 'International Tables Vol C Tables 4.2.6.8 and 6.1.1.4'
 'N' 'N' 0.0061 0.0033 'International Tables Vol C Tables 4.2.6.8 and 6.1.1.4'
 'O' 'O' 0.0106 0.0060 'International Tables Vol C Tables 4.2.6.8 and 6.1.1.4'

_shelx_space_group_comment
;
The symmetry employed for this shelxl refinement is uniquely defined
by the following loop, which should always be used as a source of
symmetry information in preference to the above space-group names.
They are only intended as comments.
;
_space_group_crystal_system       'triclinic'
_space_group_IT_number            2
_space_group_name_H-M_alt         'P -1'
_space_group_name_Hall            '-P 1'
loop_
  _space_group_symop_operation_xyz
 'x, y, z'
 '-x, -y, -z'

_cell_length_a                    6.433(2)
_cell_length_b                    7.542(3)
_cell_length_c                    15.771(6)
_cell_angle_alpha                 90.874(6)
_cell_angle_beta                  95.675(7)
_cell_angle_gamma                 109.593(8)
_cell_volume                      716.5(4)
_cell_formula_units_Z             2
_cell_measurement_reflns_used     3720
_cell_measurement_temperature     90(2)
_cell_measurement_theta_max       26.29
_cell_measurement_theta_min       2.59
_shelx_estimated_absorpt_T_max    0.991
_shelx_estimated_absorpt_T_min    0.974
_exptl_absorpt_coefficient_mu     0.095
_exptl_absorpt_correction_T_max   0.991
_exptl_absorpt_correction_T_min   0.851
_exptl_absorpt_correction_type    multi-scan
_exptl_absorpt_process_details
;
 TWINABS-2012/1 (Bruker,2012) was used for absorption correction.
 
For component 1:
 wR2(int) was 0.0425 before and 0.0295 after correction.
 The Ratio of minimum to maximum transmission not present.
 The \l/2 correction factor is Not present
 
For component 2:
 wR2(int) was 0.0528 before and 0.0355 after correction.
 The Ratio of minimum to maximum transmission not present.
 The \l/2 correction factor is Not present
;
_exptl_absorpt_special_details    ?
_exptl_crystal_colour             colourless
_exptl_crystal_colour_primary     colourless
_exptl_crystal_density_diffrn     1.351
_exptl_crystal_density_meas       ?
_exptl_crystal_density_method     ?
_exptl_crystal_description        'irregular'
_exptl_crystal_F_000              312
_exptl_crystal_size_max           0.28
_exptl_crystal_size_mid           0.17
_exptl_crystal_size_min           0.1
_exptl_transmission_factor_max    ?
_exptl_transmission_factor_min    ?
_diffrn_reflns_av_R_equivalents   ?
_diffrn_reflns_av_unetI/netI      0.0340
_diffrn_reflns_Laue_measured_fraction_full 1.000
_diffrn_reflns_Laue_measured_fraction_max 0.997
_diffrn_reflns_limit_h_max        7
_diffrn_reflns_limit_h_min        -8
_diffrn_reflns_limit_k_max        9
_diffrn_reflns_limit_k_min        -9
_diffrn_reflns_limit_l_max        19
_diffrn_reflns_limit_l_min        0
_diffrn_reflns_number             2944
_diffrn_reflns_point_group_measured_fraction_full 1.000
_diffrn_reflns_point_group_measured_fraction_max 0.997
_diffrn_reflns_theta_full         26.000
_diffrn_reflns_theta_max          26.480
_diffrn_reflns_theta_min          2.599
_diffrn_ambient_temperature       90(2)
_diffrn_detector                  'Bruker APEX2 area detector'
_diffrn_detector_area_resol_mean  7.9
_diffrn_detector_type             'Bruker-Nonius APEXII CCD area detector'
_diffrn_measured_fraction_theta_full 1.000
_diffrn_measured_fraction_theta_max 0.997
_diffrn_measurement_device
'Bruker-Nonius APEXII CCD area detector and D8 diffractometer'
_diffrn_measurement_device_type   'Bruker APEX-II CCD'
_diffrn_measurement_method        '\f and \w scans'
_diffrn_radiation_monochromator   'TRIUMPH curved-crystal'
_diffrn_radiation_probe           X-ray
_diffrn_radiation_type            MoK\a
_diffrn_radiation_wavelength      0.71073
_diffrn_source                    'sealed X-ray tube'
_diffrn_standards_number          0
_reflns_Friedel_coverage          0.000
_reflns_Friedel_fraction_full     .
_reflns_Friedel_fraction_max      .
_reflns_number_gt                 2508
_reflns_number_total              2944
_reflns_special_details
;
 _reflns_Friedel_fraction is defined as the number of unique
 Friedel pairs measured divided by the number that would be
 possible theoretically, ignoring centric projections and
 systematic absences.
;
_reflns_threshold_expression      'I > 2\s(I)'
_computing_cell_refinement        'SAINT v8.34A (Bruker, 2013)'
_computing_data_collection        ?
_computing_data_reduction         'SAINT v8.34A (Bruker, 2013)'
_computing_molecular_graphics     'Olex2 (Dolomanov et al., 2009)'
_computing_publication_material   'Olex2 (Dolomanov et al., 2009)'
_computing_structure_refinement   'XL (Sheldrick, 2008)'
_computing_structure_solution     'XT (Sheldrick, 2015)'
_refine_diff_density_max          0.696
_refine_diff_density_min          -0.312
_refine_diff_density_rms          0.066
_refine_ls_extinction_coef        .
_refine_ls_extinction_method      none
_refine_ls_goodness_of_fit_ref    1.050
_refine_ls_hydrogen_treatment     constr
_refine_ls_matrix_type            full
_refine_ls_number_parameters      197
_refine_ls_number_reflns          2944
_refine_ls_number_restraints      0
_refine_ls_R_factor_all           0.0645
_refine_ls_R_factor_gt            0.0516
_refine_ls_restrained_S_all       1.050
_refine_ls_shift/su_max           0.000
_refine_ls_shift/su_mean          0.000
_refine_ls_structure_factor_coef  Fsqd
_refine_ls_weighting_details
'w=1/[\s^2^(Fo^2^)+(0.0831P)^2^+0.4020P] where P=(Fo^2^+2Fc^2^)/3'
_refine_ls_weighting_scheme       calc
_refine_ls_wR_factor_gt           0.1365
_refine_ls_wR_factor_ref          0.1443
_refine_special_details
;
 Refined as a 2-component twin.
;
_olex2_refinement_description
;
1. Twinned data refinement
 Scales: 0.8328(14) 0.1672(14)
2. Fixed Uiso
 At 1.2 times of:
  All C(H) groups
 At 1.5 times of:
  All C(H,H,H) groups
3.a Aromatic/amide H refined with riding coordinates:
 C7(H7), C10(H10), C13(H13)
3.b Idealised Me refined as rotating group:
 C8(H8A,H8B,H8C), C9(H9A,H9B,H9C), C11(H11A,H11B,H11C), C12(H12A,H12B,H12C),
 C14(H14A,H14B,H14C), C15(H15A,H15B,H15C)
;
_atom_sites_solution_hydrogens    geom
_atom_sites_solution_primary      direct
_atom_sites_solution_secondary    ?
loop_
  _atom_site_label
  _atom_site_type_symbol
  _atom_site_fract_x
  _atom_site_fract_y
  _atom_site_fract_z
  _atom_site_U_iso_or_equiv
  _atom_site_adp_type
  _atom_site_occupancy
  _atom_site_site_symmetry_order
  _atom_site_calc_flag
  _atom_site_refinement_flags_posn
  _atom_site_refinement_flags_adp
  _atom_site_refinement_flags_occupancy
  _atom_site_disorder_assembly
  _atom_site_disorder_group
 O1 O 0.2881(3) 0.6089(3) 0.88895(11) 0.0284(4) Uani 1 1 d . . . . .
 O2 O 0.5305(3) 0.5963(3) 0.61795(11) 0.0246(4) Uani 1 1 d . . . . .
 O3 O -0.0950(3) 0.1185(2) 0.68515(10) 0.0199(4) Uani 1 1 d . . . . .
 N1 N 0.7745(4) 0.7552(3) 0.85664(14) 0.0267(5) Uani 1 1 d . . . . .
 N2 N -0.0489(3) 0.2502(3) 0.50360(12) 0.0172(4) Uani 1 1 d . . . . .
 N3 N -0.3083(4) 0.2079(3) 0.83528(13) 0.0248(5) Uani 1 1 d . . . . .
 C1 C 0.2624(4) 0.5280(3) 0.81610(15) 0.0196(5) Uani 1 1 d . . . . .
 C2 C 0.4367(4) 0.5844(3) 0.75965(15) 0.0177(5) Uani 1 1 d . . . . .
 C3 C 0.3885(4) 0.5276(3) 0.66797(15) 0.0179(5) Uani 1 1 d . . . . .
 C4 C 0.1750(4) 0.3863(3) 0.63834(14) 0.0157(5) Uani 1 1 d . . . . .
 C5 C 0.0315(4) 0.2844(3) 0.70047(14) 0.0161(5) Uani 1 1 d . . . . .
 C6 C 0.0555(4) 0.3787(3) 0.78477(15) 0.0183(5) Uani 1 1 d . . . . .
 C7 C 0.6509(4) 0.7116(3) 0.78249(15) 0.0214(5) Uani 1 1 d . . . . .
 H7 H 0.7195 0.7784 0.7364 0.026 Uiso 1 1 calc R . . . .
 C8 C 0.7300(5) 0.6468(4) 0.93233(18) 0.0333(6) Uani 1 1 d . . . . .
 H8A H 0.6746 0.7137 0.9735 0.050 Uiso 1 1 calc GR . . . .
 H8B H 0.8673 0.6309 0.9581 0.050 Uiso 1 1 calc GR . . . .
 H8C H 0.6183 0.5228 0.9164 0.050 Uiso 1 1 calc GR . . . .
 C9 C 0.9963(5) 0.8992(4) 0.86357(19) 0.0320(6) Uani 1 1 d . . . . .
 H9A H 1.1091 0.8387 0.8732 0.048 Uiso 1 1 calc GR . . . .
 H9B H 1.0122 0.9887 0.9115 0.048 Uiso 1 1 calc GR . . . .
 H9C H 1.0158 0.9664 0.8106 0.048 Uiso 1 1 calc GR . . . .
 C10 C 0.1405(4) 0.3331(3) 0.55107(14) 0.0164(5) Uani 1 1 d . . . . .
 H10 H 0.2703 0.3603 0.5227 0.020 Uiso 1 1 calc R . . . .
 C11 C -0.0518(4) 0.1831(3) 0.41578(15) 0.0215(5) Uani 1 1 d . . . . .
 H11A H 0.1008 0.2162 0.4013 0.032 Uiso 1 1 calc GR . . . .
 H11B H -0.1343 0.2423 0.3769 0.032 Uiso 1 1 calc GR . . . .
 H11C H -0.1239 0.0460 0.4104 0.032 Uiso 1 1 calc GR . . . .
 C12 C -0.2659(4) 0.2254(4) 0.53223(15) 0.0209(5) Uani 1 1 d . . . . .
 H12A H -0.3221 0.1024 0.5572 0.031 Uiso 1 1 calc GR . . . .
 H12B H -0.3697 0.2318 0.4835 0.031 Uiso 1 1 calc GR . . . .
 H12C H -0.2512 0.3254 0.5752 0.031 Uiso 1 1 calc GR . . . .
 C13 C -0.0960(4) 0.3157(4) 0.84437(16) 0.0230(5) Uani 1 1 d . . . . .
 H13 H -0.0367 0.3574 0.9016 0.028 Uiso 1 1 calc R . . . .
 C14 C -0.4519(4) 0.1612(4) 0.75471(16) 0.0245(5) Uani 1 1 d . . . . .
 H14A H -0.3924 0.2573 0.7140 0.037 Uiso 1 1 calc GR . . . .
 H14B H -0.6016 0.1570 0.7644 0.037 Uiso 1 1 calc GR . . . .
 H14C H -0.4582 0.0379 0.7316 0.037 Uiso 1 1 calc GR . . . .
 C15 C -0.4199(5) 0.1356(5) 0.91087(18) 0.0379(7) Uani 1 1 d . . . . .
 H15A H -0.4759 -0.0025 0.9063 0.057 Uiso 1 1 calc GR . . . .
 H15B H -0.5442 0.1821 0.9144 0.057 Uiso 1 1 calc GR . . . .
 H15C H -0.3142 0.1790 0.9623 0.057 Uiso 1 1 calc GR . . . .

loop_
  _atom_site_aniso_label
  _atom_site_aniso_U_11
  _atom_site_aniso_U_22
  _atom_site_aniso_U_33
  _atom_site_aniso_U_23
  _atom_site_aniso_U_13
  _atom_site_aniso_U_12
 O1 0.0254(9) 0.0410(11) 0.0182(9) -0.0087(8) 0.0021(7) 0.0111(8)
 O2 0.0192(9) 0.0317(10) 0.0175(8) 0.0030(7) 0.0035(7) 0.0012(7)
 O3 0.0222(9) 0.0169(8) 0.0210(8) 0.0024(7) 0.0065(7) 0.0058(7)
 N1 0.0313(13) 0.0243(11) 0.0200(11) -0.0013(9) -0.0004(9) 0.0046(10)
 N2 0.0172(10) 0.0193(10) 0.0152(9) 0.0003(8) 0.0032(8) 0.0058(8)
 N3 0.0210(11) 0.0342(12) 0.0191(10) 0.0017(9) 0.0082(9) 0.0078(9)
 C1 0.0228(12) 0.0207(12) 0.0183(11) 0.0008(9) 0.0018(9) 0.0115(10)
 C2 0.0194(12) 0.0164(11) 0.0169(11) 0.0001(9) 0.0015(9) 0.0055(9)
 C3 0.0184(12) 0.0185(11) 0.0176(11) 0.0015(9) 0.0011(9) 0.0075(9)
 C4 0.0167(11) 0.0155(11) 0.0155(11) 0.0022(8) 0.0034(9) 0.0059(9)
 C5 0.0156(11) 0.0183(11) 0.0168(11) 0.0028(9) 0.0030(9) 0.0087(9)
 C6 0.0198(12) 0.0218(12) 0.0165(11) 0.0031(9) 0.0045(9) 0.0104(10)
 C7 0.0282(14) 0.0187(12) 0.0182(11) 0.0002(9) 0.0004(10) 0.0098(10)
 C8 0.0375(16) 0.0372(16) 0.0263(14) 0.0046(12) 0.0058(12) 0.0131(13)
 C9 0.0276(15) 0.0278(14) 0.0356(15) -0.0004(12) -0.0034(12) 0.0046(12)
 C10 0.0171(11) 0.0149(11) 0.0176(11) 0.0033(9) 0.0042(9) 0.0051(9)
 C11 0.0253(13) 0.0209(12) 0.0178(12) -0.0040(9) 0.0027(10) 0.0072(10)
 C12 0.0159(12) 0.0274(13) 0.0187(11) 0.0009(10) 0.0013(9) 0.0065(10)
 C13 0.0226(13) 0.0304(13) 0.0178(12) 0.0005(10) 0.0038(10) 0.0109(11)
 C14 0.0196(12) 0.0294(14) 0.0258(13) 0.0008(11) 0.0049(10) 0.0093(11)
 C15 0.0317(15) 0.0520(19) 0.0268(14) 0.0042(13) 0.0138(12) 0.0069(14)

_geom_special_details
;
 All esds (except the esd in the dihedral angle between two l.s. planes)
 are estimated using the full covariance matrix.  The cell esds are taken
 into account individually in the estimation of esds in distances, angles
 and torsion angles; correlations between esds in cell parameters are only
 used when they are defined by crystal symmetry.  An approximate (isotropic)
 treatment of cell esds is used for estimating esds involving l.s. planes.
;
loop_
  _geom_bond_atom_site_label_1
  _geom_bond_atom_site_label_2
  _geom_bond_distance
  _geom_bond_site_symmetry_2
  _geom_bond_publ_flag
 O1 C1 1.262(3) . ?
 O2 C3 1.250(3) . ?
 O3 C5 1.247(3) . ?
 N1 C7 1.318(3) . ?
 N1 C8 1.455(4) . ?
 N1 C9 1.468(4) . ?
 N2 C10 1.315(3) . ?
 N2 C11 1.463(3) . ?
 N2 C12 1.463(3) . ?
 N3 C13 1.327(3) . ?
 N3 C14 1.459(3) . ?
 N3 C15 1.470(3) . ?
 C1 C2 1.456(3) . ?
 C1 C6 1.460(4) . ?
 C2 C3 1.474(3) . ?
 C2 C7 1.397(4) . ?
 C3 C4 1.455(3) . ?
 C4 C5 1.459(3) . ?
 C4 C10 1.403(3) . ?
 C5 C6 1.468(3) . ?
 C6 C13 1.394(3) . ?
 C7 H7 0.9500 . ?
 C8 H8A 0.9800 . ?
 C8 H8B 0.9800 . ?
 C8 H8C 0.9800 . ?
 C9 H9A 0.9800 . ?
 C9 H9B 0.9800 . ?
 C9 H9C 0.9800 . ?
 C10 H10 0.9500 . ?
 C11 H11A 0.9800 . ?
 C11 H11B 0.9800 . ?
 C11 H11C 0.9800 . ?
 C12 H12A 0.9800 . ?
 C12 H12B 0.9800 . ?
 C12 H12C 0.9800 . ?
 C13 H13 0.9500 . ?
 C14 H14A 0.9800 . ?
 C14 H14B 0.9800 . ?
 C14 H14C 0.9800 . ?
 C15 H15A 0.9800 . ?
 C15 H15B 0.9800 . ?
 C15 H15C 0.9800 . ?

loop_
  _geom_angle_atom_site_label_1
  _geom_angle_atom_site_label_2
  _geom_angle_atom_site_label_3
  _geom_angle
  _geom_angle_site_symmetry_1
  _geom_angle_site_symmetry_3
  _geom_angle_publ_flag
 C7 N1 C8 124.9(2) . . ?
 C7 N1 C9 120.4(2) . . ?
 C8 N1 C9 113.6(2) . . ?
 C10 N2 C11 120.6(2) . . ?
 C10 N2 C12 123.6(2) . . ?
 C12 N2 C11 115.8(2) . . ?
 C13 N3 C14 125.2(2) . . ?
 C13 N3 C15 119.9(2) . . ?
 C14 N3 C15 114.8(2) . . ?
 O1 C1 C2 120.9(2) . . ?
 O1 C1 C6 121.3(2) . . ?
 C2 C1 C6 117.8(2) . . ?
 C1 C2 C3 120.8(2) . . ?
 C7 C2 C1 125.0(2) . . ?
 C7 C2 C3 113.7(2) . . ?
 O2 C3 C2 120.4(2) . . ?
 O2 C3 C4 121.4(2) . . ?
 C4 C3 C2 118.2(2) . . ?
 C3 C4 C5 119.5(2) . . ?
 C10 C4 C3 115.8(2) . . ?
 C10 C4 C5 123.5(2) . . ?
 O3 C5 C4 121.5(2) . . ?
 O3 C5 C6 120.9(2) . . ?
 C4 C5 C6 117.4(2) . . ?
 C1 C6 C5 120.2(2) . . ?
 C13 C6 C1 115.5(2) . . ?
 C13 C6 C5 123.6(2) . . ?
 N1 C7 C2 131.4(2) . . ?
 N1 C7 H7 114.3 . . ?
 C2 C7 H7 114.3 . . ?
 N1 C8 H8A 109.5 . . ?
 N1 C8 H8B 109.5 . . ?
 N1 C8 H8C 109.5 . . ?
 H8A C8 H8B 109.5 . . ?
 H8A C8 H8C 109.5 . . ?
 H8B C8 H8C 109.5 . . ?
 N1 C9 H9A 109.5 . . ?
 N1 C9 H9B 109.5 . . ?
 N1 C9 H9C 109.5 . . ?
 H9A C9 H9B 109.5 . . ?
 H9A C9 H9C 109.5 . . ?
 H9B C9 H9C 109.5 . . ?
 N2 C10 C4 128.2(2) . . ?
 N2 C10 H10 115.9 . . ?
 C4 C10 H10 115.9 . . ?
 N2 C11 H11A 109.5 . . ?
 N2 C11 H11B 109.5 . . ?
 N2 C11 H11C 109.5 . . ?
 H11A C11 H11B 109.5 . . ?
 H11A C11 H11C 109.5 . . ?
 H11B C11 H11C 109.5 . . ?
 N2 C12 H12A 109.5 . . ?
 N2 C12 H12B 109.5 . . ?
 N2 C12 H12C 109.5 . . ?
 H12A C12 H12B 109.5 . . ?
 H12A C12 H12C 109.5 . . ?
 H12B C12 H12C 109.5 . . ?
 N3 C13 C6 131.4(2) . . ?
 N3 C13 H13 114.3 . . ?
 C6 C13 H13 114.3 . . ?
 N3 C14 H14A 109.5 . . ?
 N3 C14 H14B 109.5 . . ?
 N3 C14 H14C 109.5 . . ?
 H14A C14 H14B 109.5 . . ?
 H14A C14 H14C 109.5 . . ?
 H14B C14 H14C 109.5 . . ?
 N3 C15 H15A 109.5 . . ?
 N3 C15 H15B 109.5 . . ?
 N3 C15 H15C 109.5 . . ?
 H15A C15 H15B 109.5 . . ?
 H15A C15 H15C 109.5 . . ?
 H15B C15 H15C 109.5 . . ?

loop_
  _geom_torsion_atom_site_label_1
  _geom_torsion_atom_site_label_2
  _geom_torsion_atom_site_label_3
  _geom_torsion_atom_site_label_4
  _geom_torsion
  _geom_torsion_site_symmetry_1
  _geom_torsion_site_symmetry_2
  _geom_torsion_site_symmetry_3
  _geom_torsion_site_symmetry_4
  _geom_torsion_publ_flag
 O1 C1 C2 C3 -163.9(2) . . . . ?
 O1 C1 C2 C7 7.9(4) . . . . ?
 O1 C1 C6 C5 -178.8(2) . . . . ?
 O1 C1 C6 C13 -8.4(3) . . . . ?
 O2 C3 C4 C5 168.6(2) . . . . ?
 O2 C3 C4 C10 0.2(3) . . . . ?
 O3 C5 C6 C1 151.8(2) . . . . ?
 O3 C5 C6 C13 -17.8(4) . . . . ?
 C1 C2 C3 O2 170.6(2) . . . . ?
 C1 C2 C3 C4 -11.2(3) . . . . ?
 C1 C2 C7 N1 28.4(4) . . . . ?
 C1 C6 C13 N3 167.5(3) . . . . ?
 C2 C1 C6 C5 2.8(3) . . . . ?
 C2 C1 C6 C13 173.2(2) . . . . ?
 C2 C3 C4 C5 -9.6(3) . . . . ?
 C2 C3 C4 C10 -178.1(2) . . . . ?
 C3 C2 C7 N1 -159.3(3) . . . . ?
 C3 C4 C5 O3 -148.4(2) . . . . ?
 C3 C4 C5 C6 26.4(3) . . . . ?
 C3 C4 C10 N2 -160.5(2) . . . . ?
 C4 C5 C6 C1 -23.0(3) . . . . ?
 C4 C5 C6 C13 167.4(2) . . . . ?
 C5 C4 C10 N2 31.6(4) . . . . ?
 C5 C6 C13 N3 -22.5(4) . . . . ?
 C6 C1 C2 C3 14.5(3) . . . . ?
 C6 C1 C2 C7 -173.7(2) . . . . ?
 C7 C2 C3 O2 -2.1(3) . . . . ?
 C7 C2 C3 C4 176.1(2) . . . . ?
 C8 N1 C7 C2 14.0(5) . . . . ?
 C9 N1 C7 C2 -178.7(3) . . . . ?
 C10 C4 C5 O3 19.1(3) . . . . ?
 C10 C4 C5 C6 -166.1(2) . . . . ?
 C11 N2 C10 C4 -172.1(2) . . . . ?
 C12 N2 C10 C4 10.4(4) . . . . ?
 C14 N3 C13 C6 -14.8(4) . . . . ?
 C15 N3 C13 C6 169.3(3) . . . . ?

_shelx_res_file
;
    mm257.res created by SHELXL-2014/7

TITL mm257_a.res in P-1
REM Old TITL mm257 in P-1 #2
REM SHELXT solution in P-1
REM R1 0.158, Rweak 0.025, Alpha 0.079, Orientation as input
REM Formula found by SHELXT: C17 N O3
CELL 0.71073 6.4333 7.5423 15.7713 90.874 95.675 109.593
ZERR 2 0.0021 0.0027 0.0057 0.006 0.007 0.008
LATT 1
SFAC C H N O
UNIT 30 42 6 6

L.S. 10
PLAN  20
SIZE 0.1 0.17 0.28
TEMP -183(2)
BOND $H
LIST 4
MORE -1
CONF
fmap 2
acta 52
REM <olex2.extras>
REM <HklSrc "%.\\twin5.hkl">
REM </olex2.extras>

WGHT    0.083100    0.402000
BASF   0.16718
FVAR       0.73170
O1    4    0.288093    0.608941    0.888948    11.00000    0.02537    0.04101 =
         0.01818   -0.00871    0.00209    0.01107
O2    4    0.530465    0.596315    0.617955    11.00000    0.01925    0.03169 =
         0.01750    0.00305    0.00348    0.00124
O3    4   -0.094988    0.118522    0.685152    11.00000    0.02217    0.01688 =
         0.02103    0.00240    0.00645    0.00582
N1    3    0.774527    0.755204    0.856643    11.00000    0.03128    0.02427 =
         0.01999   -0.00126   -0.00045    0.00455
N2    3   -0.048883    0.250199    0.503599    11.00000    0.01724    0.01926 =
         0.01522    0.00031    0.00318    0.00579
N3    3   -0.308297    0.207922    0.835283    11.00000    0.02103    0.03422 =
         0.01914    0.00173    0.00818    0.00780
C1    1    0.262394    0.528018    0.816100    11.00000    0.02285    0.02069 =
         0.01831    0.00081    0.00182    0.01149
C2    1    0.436721    0.584397    0.759651    11.00000    0.01937    0.01640 =
         0.01688    0.00006    0.00146    0.00554
C3    1    0.388541    0.527631    0.667974    11.00000    0.01842    0.01847 =
         0.01758    0.00146    0.00107    0.00755
C4    1    0.175025    0.386303    0.638344    11.00000    0.01673    0.01550 =
         0.01553    0.00218    0.00341    0.00592
C5    1    0.031468    0.284365    0.700465    11.00000    0.01561    0.01831 =
         0.01685    0.00278    0.00298    0.00866
C6    1    0.055459    0.378715    0.784770    11.00000    0.01982    0.02175 =
         0.01646    0.00306    0.00448    0.01041
C7    1    0.650862    0.711551    0.782491    11.00000    0.02824    0.01868 =
         0.01824    0.00024    0.00042    0.00981
AFIX  43
H7    2    0.719484    0.778382    0.736411    11.00000   -1.20000
AFIX   0
C8    1    0.730042    0.646815    0.932334    11.00000    0.03748    0.03719 =
         0.02630    0.00457    0.00585    0.01312
AFIX 137
H8A   2    0.674573    0.713704    0.973522    11.00000   -1.50000
H8B   2    0.867269    0.630870    0.958068    11.00000   -1.50000
H8C   2    0.618310    0.522844    0.916410    11.00000   -1.50000
AFIX   0
C9    1    0.996349    0.899208    0.863569    11.00000    0.02758    0.02776 =
         0.03555   -0.00036   -0.00340    0.00462
AFIX 137
H9A   2    1.109141    0.838684    0.873181    11.00000   -1.50000
H9B   2    1.012190    0.988675    0.911507    11.00000   -1.50000
H9C   2    1.015830    0.966418    0.810643    11.00000   -1.50000
AFIX   0
C10   1    0.140470    0.333050    0.551074    11.00000    0.01705    0.01489 =
         0.01757    0.00335    0.00415    0.00511
AFIX  43
H10   2    0.270311    0.360285    0.522661    11.00000   -1.20000
AFIX   0
C11   1   -0.051830    0.183134    0.415778    11.00000    0.02529    0.02089 =
         0.01780   -0.00397    0.00269    0.00723
AFIX 137
H11A  2    0.100768    0.216226    0.401253    11.00000   -1.50000
H11B  2   -0.134335    0.242306    0.376862    11.00000   -1.50000
H11C  2   -0.123895    0.045960    0.410407    11.00000   -1.50000
AFIX   0
C12   1   -0.265861    0.225403    0.532231    11.00000    0.01590    0.02742 =
         0.01865    0.00087    0.00125    0.00653
AFIX 137
H12A  2   -0.322130    0.102443    0.557203    11.00000   -1.50000
H12B  2   -0.369664    0.231777    0.483486    11.00000   -1.50000
H12C  2   -0.251160    0.325376    0.575188    11.00000   -1.50000
AFIX   0
C13   1   -0.095997    0.315748    0.844366    11.00000    0.02263    0.03039 =
         0.01777    0.00054    0.00380    0.01091
AFIX  43
H13   2   -0.036712    0.357417    0.901623    11.00000   -1.20000
AFIX   0
C14   1   -0.451915    0.161205    0.754713    11.00000    0.01957    0.02937 =
         0.02584    0.00076    0.00493    0.00929
AFIX 137
H14A  2   -0.392450    0.257296    0.714015    11.00000   -1.50000
H14B  2   -0.601607    0.156996    0.764388    11.00000   -1.50000
H14C  2   -0.458163    0.037940    0.731612    11.00000   -1.50000
AFIX   0
C15   1   -0.419933    0.135617    0.910871    11.00000    0.03165    0.05201 =
         0.02682    0.00419    0.01378    0.00690
AFIX 137
H15A  2   -0.475907   -0.002456    0.906329    11.00000   -1.50000
H15B  2   -0.544154    0.182051    0.914423    11.00000   -1.50000
H15C  2   -0.314163    0.179050    0.962255    11.00000   -1.50000
AFIX   0
HKLF 5

REM  mm257_a.res in P-1
REM R1 =  0.0516 for    2508 Fo > 4sig(Fo)  and  0.0645 for all    2944 data
REM    197 parameters refined using      0 restraints

END

WGHT      0.0831      0.4034

REM Highest difference peak  0.696,  deepest hole -0.312,  1-sigma level  0.066
Q1    1   0.6260  0.7672  0.8667  11.00000  0.05    0.70
Q2    1   1.0679  0.8537  0.9459  11.00000  0.05    0.60
Q3    1   0.1032  0.3450  0.6671  11.00000  0.05    0.32
Q4    1   0.4109  0.5723  0.7211  11.00000  0.05    0.31
Q5    1   0.1389  0.4591  0.7930  11.00000  0.05    0.30
Q6    1   0.7965  0.7521  0.7409  11.00000  0.05    0.28
Q7    1   0.0174  0.3625  0.7413  11.00000  0.05    0.28
Q8    1   0.1926  0.5496  0.9216  11.00000  0.05    0.28
Q9    1  -0.4055  0.2558  0.9138  11.00000  0.05    0.27
Q10   1  -0.3702  0.1687  0.7956  11.00000  0.05    0.26
Q11   1  -0.1315  0.2214  0.5211  11.00000  0.05    0.25
Q12   1   0.3525  0.5862  0.7803  11.00000  0.05    0.24
Q13   1   0.5114  0.6996  0.7800  11.00000  0.05    0.24
Q14   1   0.3736  0.5479  0.7904  11.00000  0.05    0.23
Q15   1   0.0264  0.3188  0.5254  11.00000  0.05    0.23
Q16   1  -0.2666  0.3151  0.8453  11.00000  0.05    0.23
Q17   1  -0.5763  0.1202  0.9069  11.00000  0.05    0.22
Q18   1   0.1450  0.3682  0.6018  11.00000  0.05    0.22
Q19   1   0.0254  0.2382  0.5323  11.00000  0.05    0.21
Q20   1   0.2791  0.4214  0.4849  11.00000  0.05    0.21
;
_shelx_res_checksum               96315
_shelx_hkl_file
;
   1   0   0 122.559 1.58907   1
  -2   0   1 217.890 3.47990  -2
   2   0   0 217.890 3.47990   1
  -3   0   2 146.714 2.70822  -2
   3   0   0 146.714 2.70822   1
  -4   0   2 56.7698 1.58333  -2
   4   0   0 56.7698 1.58333   1
  -5   0   3 62.3489 1.29355  -2
   5   0   0 62.3489 1.29355   1
   6   0   0 35.6885 2.17574   1
  -7   0   4 12.8356 2.07925  -2
   7   0   0 12.8356 2.07925   1
  -7   1   4 9.56255 1.31705  -2
  -7   1   0 9.56255 1.31705   1
  -6   1   3 44.2559 1.56740  -2
  -6   1   0 44.2559 1.56740   1
  -5   1   3 50.5218 2.57839  -2
  -5   1   0 50.5218 2.57839   1
  -4   1   2 226.303 2.74926  -2
  -4   1   0 226.303 2.74926   1
  -3   1   0 65.8524 1.40644   1
  -2   1   1 556.896 5.83354  -2
  -2   1   0 556.896 5.83354   1
  -1   1   0 31.9529 0.67293   1
   0   1   0 852.309 8.24496   1
  -1  -1   1 549.182 15.8487  -2
   1   1   0 549.182 15.8487   1
  -2  -1   1 51.1602 3.83705  -2
   2   1   0 51.1602 3.83705   1
  -3  -1   2 150.571 2.93641  -2
   3   1   0 150.571 2.93641   1
   4   1   0 55.2181 1.98713   1
  -5  -1   3 139.461 3.41472  -2
   5   1   0 139.461 3.41472   1
  -6  -1   4 16.4811 2.67431  -2
   6   1   0 16.4811 2.67431   1
  -7  -1   4 11.7820 2.61038  -2
   7   1   0 11.7820 2.61038   1
  -7   2   4 8.34144 2.20376  -2
  -7   2   0 8.34144 2.20376   1
  -6   2   3 -0.9599 1.01531  -2
  -6   2   0 -0.9599 1.01531   1
  -5   2   0 0.57472 0.69183   1
  -4   2   2 4.87552 0.83756  -2
  -4   2   0 4.87552 0.83756   1
  -3   2   1 800.214 11.0002  -2
  -3   2   0 800.214 11.0002   1
  -2   2   0 75.5048 1.31844   1
  -1   2   0 2050.24 27.2658  -2
  -1   2   0 2050.24 27.2658   1
   0   2   0 1093.84 11.9920   1
  -1  -2   1 40.9291 0.78900  -2
   1   2   0 40.9291 0.78900   1
  -2  -2   2 217.124 8.07806  -2
   2   2   0 217.124 8.07806   1
  -3  -2   2 25.8960 0.93857  -2
   3   2   0 25.8960 0.93857   1
  -4  -2   3 23.3010 2.13967  -2
   4   2   0 23.3010 2.13967   1
  -5  -2   3 22.0324 2.37124  -2
   5   2   0 22.0324 2.37124   1
  -6  -2   4 1.17329 2.15283  -2
   6   2   0 1.17329 2.15283   1
  -8   3   4 11.2596 1.54341  -2
  -8   3   0 11.2596 1.54341   1
  -7   3   3 34.5327 2.08793  -2
  -7   3   0 34.5327 2.08793   1
  -6   3   3 26.8980 1.63688  -2
  -6   3   0 26.8980 1.63688   1
  -5   3   2 13.6345 0.87653  -2
  -5   3   0 13.6345 0.87653   1
  -4   3   2 7.49550 1.41826  -2
  -4   3   0 7.49550 1.41826   1
  -3   3   1 13.1172 0.83111  -2
  -3   3   0 13.1172 0.83111   1
  -2   3   0 32.2757 0.98765   1
  -1   3   0 43.7897 1.23853  -2
  -1   3   0 43.7897 1.23853   1
   0   3   0 7.23246 0.63756   1
  -1  -3   1 258.387 3.67078  -2
   1   3   0 258.387 3.67078   1
  -2  -3   2 65.0012 1.26329  -2
   2   3   0 65.0012 1.26329   1
   3   3   0 9.64597 0.61969   1
  -4  -3   3 91.5011 2.75241  -2
   4   3   0 91.5011 2.75241   1
   5   3   0 7.68914 1.85882   1
  -6  -3   4 21.2960 2.47336  -2
   6   3   0 21.2960 2.47336   1
  -7   4   3 5.19704 1.44716  -2
  -7   4   0 5.19704 1.44716   1
  -6   4   3 12.1476 2.84836  -2
  -6   4   0 12.1476 2.84836   1
  -5   4   2 78.1762 1.56401  -2
  -5   4   0 78.1762 1.56401   1
  -4   4   1 57.9153 2.99714  -2
  -4   4   0 57.9153 2.99714   1
  -3   4   1 281.441 3.84928  -2
  -3   4   0 281.441 3.84928   1
  -2   4   0 501.887 6.12921  -2
  -2   4   0 501.887 6.12921   1
  -1   4   0 198.937 2.79762   1
   0  -4   1 123.559 2.00592  -2
   0   4   0 123.559 2.00592   1
   1   4   0 173.633 2.00524   1
  -2  -4   2 2.66515 0.73560  -2
   2   4   0 2.66515 0.73560   1
  -3  -4   3 35.6447 3.79592  -2
   3   4   0 35.6447 3.79592   1
  -4  -4   3 1.84376 1.34579  -2
   4   4   0 1.84376 1.34579   1
  -5  -4   4 2.63581 2.89942  -2
   5   4   0 2.63581 2.89942   1
  -7   5   3 5.59990 1.32305  -2
  -7   5   0 5.59990 1.32305   1
  -6   5   2 5.15586 1.64695  -2
  -6   5   0 5.15586 1.64695   1
  -5   5   2 23.4455 1.47443  -2
  -5   5   0 23.4455 1.47443   1
  -4   5   1 48.5379 1.64414  -2
  -4   5   0 48.5379 1.64414   1
  -3   5   0 4.23157 0.71336   1
  -2   5   0 16.4384 1.03948  -2
  -2   5   0 16.4384 1.03948   1
  -1   5   0 170.661 2.62756   1
   0  -5   1 44.9448 1.41416  -2
   0   5   0 44.9448 1.41416   1
  -1  -5   2 32.6894 1.18349  -2
   1   5   0 32.6894 1.18349   1
  -2  -5   2 13.6637 1.46330  -2
   2   5   0 13.6637 1.46330   1
  -3  -5   3 32.3388 1.87290  -2
   3   5   0 32.3388 1.87290   1
   4   5   0 35.8648 1.64448   1
  -7   6   3 15.2461 2.40851  -2
  -7   6   0 15.2461 2.40851   1
  -6   6   2 -0.7826 1.14880  -2
  -6   6   0 -0.7826 1.14880   1
  -5   6   2 1.38372 3.24536  -2
  -5   6   0 1.38372 3.24536   1
  -4   6   1 136.816 2.67264  -2
  -4   6   0 136.816 2.67264   1
  -3   6   0 28.4004 1.74017  -2
  -3   6   0 28.4004 1.74017   1
  -2   6   0 26.0919 1.59425  -2
  -2   6   0 26.0919 1.59425   1
   1  -6   1 9.54827 1.39843  -2
  -1   6   0 9.54827 1.39843   1
   0  -6   1 14.1318 1.95732  -2
   0   6   0 14.1318 1.95732   1
  -1  -6   2 4.16627 1.10155  -2
   1   6   0 4.16627 1.10155   1
   2   6   0 26.0311 1.32937   1
  -3  -6   3 23.6145 1.68878  -2
   3   6   0 23.6145 1.68878   1
  -4  -6   4 -1.3199 2.14396  -2
   4   6   0 -1.3199 2.14396   1
  -7   7   2 4.96702 3.73656  -2
  -7   7   0 4.96702 3.73656   1
  -6   7   2 12.2807 1.63146  -2
  -6   7   0 12.2807 1.63146   1
  -5   7   1 1.17854 1.66162  -2
  -5   7   0 1.17854 1.66162   1
  -4   7   1 5.09650 1.78662  -2
  -4   7   0 5.09650 1.78662   1
  -3   7   0 2.60663 1.66079  -2
  -3   7   0 2.60663 1.66079   1
  -2   7   0 106.585 4.61774  -2
  -2   7   0 106.585 4.61774   1
   1  -7   1 27.3769 1.37767  -2
  -1   7   0 27.3769 1.37767   1
   0  -7   2 37.4628 2.73752  -2
   0   7   0 37.4628 2.73752   1
  -1  -7   2 20.8865 1.72488  -2
   1   7   0 20.8865 1.72488   1
  -2  -7   3 30.6568 2.50450  -2
   2   7   0 30.6568 2.50450   1
  -3  -7   3 1.75335 2.39437  -2
   3   7   0 1.75335 2.39437   1
  -6   8   2 4.44081 2.13290  -2
  -6   8   0 4.44081 2.13290   1
  -5   8   1 4.25816 1.41285  -2
  -5   8   0 4.25816 1.41285   1
  -4   8   0 51.2432 4.58862  -2
  -4   8   0 51.2432 4.58862   1
  -3   8   0 -1.2761 1.49985  -2
  -3   8   0 -1.2761 1.49985   1
   2  -8   1 7.76623 1.88963  -2
  -2   8   0 7.76623 1.88963   1
   1  -8   1 34.2597 2.01574  -2
  -1   8   0 34.2597 2.01574   1
   0  -8   2 27.8529 1.96169  -2
   0   8   0 27.8529 1.96169   1
  -1  -8   2 0.31245 2.66448  -2
   1   8   0 0.31245 2.66448   1
  -4   9   0 3.03523 1.97878  -2
  -4   9   0 3.03523 1.97878   1
  -3   9   0 11.7113 2.19288  -2
  -3   9   0 11.7113 2.19288   1
   2  -9   1 9.26837 1.60772  -2
  -2   9   0 9.26837 1.60772   1
   1  -9   2 4.64728 3.75978  -2
  -1   9   0 4.64728 3.75978   1
  -1   9   0 -0.8064 3.98905  -2
   1  -9   1 -0.8064 3.98905   1
  -2   9   0 34.5898 1.90330  -2
   2  -9   1 34.5898 1.90330   1
  -3   9   1 -0.5409 2.14656  -2
   3  -9   1 -0.5409 2.14656   1
  -4   9   1 5.19913 2.02468  -2
   4  -9   1 5.19913 2.02468   1
  -1  -8   1 2.78483 2.37402  -2
  -1  -8   1 2.78483 2.37402   1
   0  -8   1 1.19287 1.66592  -2
   0  -8   1 1.19287 1.66592   1
  -1   8   0 31.9196 1.98854  -2
   1  -8   1 31.9196 1.98854   1
  -2   8   0 3.07141 1.87145  -2
   2  -8   1 3.07141 1.87145   1
  -3   8   1 1.87001 1.52705  -2
   3  -8   1 1.87001 1.52705   1
  -4   8   1 8.12855 3.78220  -2
   4  -8   1 8.12855 3.78220   1
  -5   8   2 51.7524 1.99120  -2
   5  -8   1 51.7524 1.99120   1
  -6   8   3 3.42560 2.55608  -2
   6  -8   1 3.42560 2.55608   1
  -3  -7   2 6.21880 2.43281  -2
  -3  -7   1 6.21880 2.43281   1
  -2  -7   2 7.35172 2.29150  -2
  -2  -7   1 7.35172 2.29150   1
  -1  -7   1 34.7665 1.85908  -2
  -1  -7   1 34.7665 1.85908   1
   0  -7   1 -0.0305 2.09585  -2
   0  -7   1 -0.0305 2.09585   1
  -1   7   0 4.97254 1.10347  -2
   1  -7   1 4.97254 1.10347   1
   2  -7   1 41.1412 1.56384   1
  -3   7   1 11.6572 1.48723  -2
   3  -7   1 11.6572 1.48723   1
  -4   7   2 72.1138 2.41553  -2
   4  -7   1 72.1138 2.41553   1
  -5   7   2 12.7407 1.81881  -2
   5  -7   1 12.7407 1.81881   1
  -6   7   3 7.64461 1.66286  -2
   6  -7   1 7.64461 1.66286   1
  -7   7   3 -2.2173 2.52010  -2
   7  -7   1 -2.2173 2.52010   1
  -4  -6   3 5.39549 2.32130  -2
  -4  -6   1 5.39549 2.32130   1
  -3  -6   2 2.38972 1.41462  -2
  -3  -6   1 2.38972 1.41462   1
  -2  -6   2 11.3699 2.79910  -2
  -2  -6   1 11.3699 2.79910   1
  -1  -6   1 -1.3940 1.12831  -2
  -1  -6   1 -1.3940 1.12831   1
   0   6   0 1.77442 2.38873  -2
   0  -6   1 1.77442 2.38873   1
  -1   6   0 8.95435 1.37839  -2
   1  -6   1 8.95435 1.37839   1
  -2   6   1 111.351 2.41567  -2
   2  -6   1 111.351 2.41567   1
  -3   6   1 49.5853 1.97729  -2
   3  -6   1 49.5853 1.97729   1
  -4   6   2 27.3284 1.51888  -2
   4  -6   1 27.3284 1.51888   1
   5  -6   1 6.04684 0.99186   1
  -6   6   3 -1.1220 1.57526  -2
   6  -6   1 -1.1220 1.57526   1
  -7   6   4 15.7878 2.44802  -2
   7  -6   1 15.7878 2.44802   1
  -5  -5   3 3.59665 3.47197  -2
  -5  -5   1 3.59665 3.47197   1
  -4  -5   2 23.5600 2.60290  -2
  -4  -5   1 23.5600 2.60290   1
  -3  -5   2 54.0214 2.01485  -2
  -3  -5   1 54.0214 2.01485   1
  -2  -5   1 72.7332 1.96552  -2
  -2  -5   1 72.7332 1.96552   1
  -1  -5   1 105.928 1.82399  -2
  -1  -5   1 105.928 1.82399   1
   0   5   0 132.531 2.29984  -2
   0  -5   1 132.531 2.29984   1
   1  -5   1 54.3986 1.38779   1
  -2   5   1 38.4288 1.26741  -2
   2  -5   1 38.4288 1.26741   1
   3  -5   1 74.8195 1.70006   1
  -4   5   2 31.2447 1.47075  -2
   4  -5   1 31.2447 1.47075   1
  -5   5   3 9.18037 1.45914  -2
   5  -5   1 9.18037 1.45914   1
  -6   5   3 5.57973 1.65990  -2
   6  -5   1 5.57973 1.65990   1
  -7   5   4 5.69467 1.22663  -2
   7  -5   1 5.69467 1.22663   1
  -5  -4   3 16.1939 3.01293  -2
  -5  -4   1 16.1939 3.01293   1
  -4  -4   2 1.33753 1.43185  -2
  -4  -4   1 1.33753 1.43185   1
  -3  -4   1 54.2472 1.28604   1
  -2  -4   1 0.97988 0.67146  -2
  -2  -4   1 0.97988 0.67146   1
  -1  -4   1 7.54088 0.55827   1
   0   4   0 177.722 2.57471  -2
   0  -4   1 177.722 2.57471   1
   1  -4   1 124.759 2.01391   1
  -2   4   1 248.392 3.46052  -2
   2  -4   1 248.392 3.46052   1
  -3   4   2 41.7724 1.48559  -2
   3  -4   1 41.7724 1.48559   1
   4  -4   1 34.6924 1.10058   1
  -5   4   3 13.4752 0.92923  -2
   5  -4   1 13.4752 0.92923   1
  -6   4   4 15.9274 2.80602  -2
   6  -4   1 15.9274 2.80602   1
  -7   4   4 23.9244 1.72057  -2
   7  -4   1 23.9244 1.72057   1
  -6  -3   3 9.64273 2.28127  -2
  -6  -3   1 9.64273 2.28127   1
  -5  -3   1 -0.3415 0.80257   1
  -4  -3   2 39.0047 1.27511  -2
  -4  -3   1 39.0047 1.27511   1
  -3  -3   1 29.0862 1.77153  -2
  -3  -3   1 29.0862 1.77153   1
  -2  -3   1 -0.1235 0.76753  -2
  -2  -3   1 -0.1235 0.76753   1
   1   3   0 57.1632 1.27181  -2
  -1  -3   1 57.1632 1.27181   1
   0  -3   1 64.9763 1.08513   1
  -1   3   1 360.885 4.44405  -2
   1  -3   1 360.885 4.44405   1
   2  -3   1 192.430 2.62802   1
  -3   3   2 417.338 5.06232  -2
   3  -3   1 417.338 5.06232   1
   4  -3   1 131.854 1.86538   1
  -5   3   3 122.192 2.15575  -2
   5  -3   1 122.192 2.15575   1
  -6   3   4 34.9163 1.74669  -2
   6  -3   1 34.9163 1.74669   1
  -7   3   4 49.4050 2.15550  -2
   7  -3   1 49.4050 2.15550   1
  -6  -2   3 43.5127 2.66975  -2
  -6  -2   1 43.5127 2.66975   1
  -5  -2   2 14.1706 2.30219  -2
  -5  -2   1 14.1706 2.30219   1
  -4  -2   2 28.4980 2.22486  -2
  -4  -2   1 28.4980 2.22486   1
  -3  -2   1 67.0893 1.16163  -2
  -3  -2   1 67.0893 1.16163   1
  -2  -2   1 86.0803 4.84563  -2
  -2  -2   1 86.0803 4.84563   1
   1   2   0 200.733 2.03129  -2
  -1  -2   1 200.733 2.03129   1
   0  -2   1 106.012 1.35875   1
  -1   2   1 9999.99 134.914  -2
   1  -2   1 9999.99 134.914   1
   2  -2   1 64.0791 1.18022   1
  -3   2   2 73.3715 1.70895  -2
   3  -2   1 73.3715 1.70895   1
  -4   2   3 46.6455 1.29287  -2
   4  -2   1 46.6455 1.29287   1
   5  -2   1 44.8037 1.31526   1
  -6   2   4 17.9988 1.17937  -2
   6  -2   1 17.9988 1.17937   1
  -7   2   5 4.36409 2.06581  -2
   7  -2   1 4.36409 2.06581   1
  -7  -1   3 12.1821 3.08108  -2
  -7  -1   1 12.1821 3.08108   1
  -6  -1   3 2.69393 2.59295  -2
  -6  -1   1 2.69393 2.59295   1
  -5  -1   2 78.0320 1.73880  -2
  -5  -1   1 78.0320 1.73880   1
  -4  -1   1 7.63281 1.18782   1
  -3  -1   1 6.39472 1.21736  -2
  -3  -1   1 6.39472 1.21736   1
   2   1   0 12.2883 2.31179  -2
  -2  -1   1 12.2883 2.31179   1
   1   1   0 112.777 1.64507  -2
  -1  -1   1 112.777 1.64507   1
   0  -1   1 51.7404 0.70134   1
   1  -1   1 2202.16 23.8936   1
  -2   1   2 88.7023 1.20793  -2
   2  -1   1 88.7023 1.20793   1
   3  -1   1 194.486 2.57498   1
  -4   1   3 97.8264 1.68189  -2
   4  -1   1 97.8264 1.68189   1
  -5   1   4 144.767 3.93512  -2
   5  -1   1 144.767 3.93512   1
  -6   1   4 145.743 2.56404  -2
   6  -1   1 145.743 2.56404   1
  -7   1   5 4.08678 1.62899  -2
   7  -1   1 4.08678 1.62899   1
  -7   0   3 2.21552 1.85526  -2
  -7   0   1 2.21552 1.85526   1
  -6   0   1 55.4572 1.64627   1
  -5   0   2 10.7081 0.91672  -2
  -5   0   1 10.7081 0.91672   1
  -4   0   1 14.0039 1.16179  -2
  -4   0   1 14.0039 1.16179   1
  -3   0   1 198.864 3.81829  -2
  -3   0   1 198.864 3.81829   1
   2   0   0 524.727 5.97623  -2
  -2   0   1 524.727 5.97623   1
  -1   0   1 80.6360 0.73802   1
   1   0   1 530.394 7.05466   1
  -2   0   2 95.4051 2.04213  -2
   2   0   1 95.4051 2.04213   1
  -3   0   3 121.618 3.37083  -2
   3   0   1 121.618 3.37083   1
  -4   0   3 44.0472 1.48819  -2
   4   0   1 44.0472 1.48819   1
  -5   0   4 3.82220 0.85281  -2
   5   0   1 3.82220 0.85281   1
   6   0   1 15.6922 1.80453   1
  -7   0   5 11.5547 2.59613  -2
   7   0   1 11.5547 2.59613   1
  -7   1   3 1.30288 1.29655  -2
  -7   1   1 1.30288 1.29655   1
  -6   1   2 119.938 2.37072  -2
  -6   1   1 119.938 2.37072   1
  -5   1   2 186.044 3.15549  -2
  -5   1   1 186.044 3.15549   1
  -4   1   1 0.89389 0.74983  -2
  -4   1   1 0.89389 0.74983   1
  -3   1   1 41.6240 0.81564   1
  -2   1   0 803.559 7.63335  -2
  -2   1   1 803.559 7.63335   1
  -1   1   1 1347.02 12.1899   1
   0   1   1 210.540 1.98525   1
  -1  -1   2 425.188 12.5416  -2
   1   1   1 425.188 12.5416   1
  -2  -1   2 531.445 15.9535  -2
   2   1   1 531.445 15.9535   1
  -3  -1   3 88.3501 2.19432  -2
   3   1   1 88.3501 2.19432   1
   4   1   1 131.613 2.99780   1
  -5  -1   4 52.1908 2.31467  -2
   5   1   1 52.1908 2.31467   1
  -6  -1   5 6.26670 2.65581  -2
   6   1   1 6.26670 2.65581   1
  -7  -1   5 14.7230 3.37334  -2
   7   1   1 14.7230 3.37334   1
  -7   2   3 105.597 3.15997  -2
  -7   2   1 105.597 3.15997   1
  -6   2   2 66.2624 1.73686  -2
  -6   2   1 66.2624 1.73686   1
  -5   2   1 37.2907 1.45621   1
  -4   2   1 42.0659 0.95873  -2
  -4   2   1 42.0659 0.95873   1
  -3   2   0 281.698 4.31134  -2
  -3   2   1 281.698 4.31134   1
  -2   2   1 1008.22 10.1462   1
   1  -2   1 3332.83 44.0552  -2
  -1   2   1 3332.83 44.0552   1
   0   2   1 723.142 8.03503   1
  -1  -2   2 44.0178 0.82424  -2
   1   2   1 44.0178 0.82424   1
  -2  -2   3 304.126 10.3050  -2
   2   2   1 304.126 10.3050   1
  -3  -2   3 22.6415 1.64047  -2
   3   2   1 22.6415 1.64047   1
  -4  -2   4 47.6052 2.47522  -2
   4   2   1 47.6052 2.47522   1
  -5  -2   4 42.8047 2.85305  -2
   5   2   1 42.8047 2.85305   1
  -6  -2   5 11.7124 2.27874  -2
   6   2   1 11.7124 2.27874   1
  -8   3   3 17.6073 1.63206  -2
  -8   3   1 17.6073 1.63206   1
  -7   3   2 283.751 4.86071  -2
  -7   3   1 283.751 4.86071   1
  -6   3   2 9.19571 1.18006  -2
  -6   3   1 9.19571 1.18006   1
  -5   3   1 145.682 2.43684  -2
  -5   3   1 145.682 2.43684   1
  -4   3   1 31.4049 2.39932  -2
  -4   3   1 31.4049 2.39932   1
  -3   3   0 4.26415 0.68549  -2
  -3   3   1 4.26415 0.68549   1
  -2   3   1 87.0314 1.42331   1
   1  -3   1 71.9106 1.48522  -2
  -1   3   1 71.9106 1.48522   1
   0   3   1 19.9904 0.77260   1
  -1  -3   2 705.263 10.2780  -2
   1   3   1 705.263 10.2780   1
  -2  -3   3 3.58475 0.74898  -2
   2   3   1 3.58475 0.74898   1
   3   3   1 -0.1804 0.56364   1
  -4  -3   4 45.7083 2.13346  -2
   4   3   1 45.7083 2.13346   1
   5   3   1 16.0775 2.08568   1
  -6  -3   5 27.8858 2.60721  -2
   6   3   1 27.8858 2.60721   1
  -8   4   3 4.74695 1.92476  -2
  -8   4   1 4.74695 1.92476   1
  -7   4   2 12.2377 1.91654  -2
  -7   4   1 12.2377 1.91654   1
  -6   4   2 15.6960 2.63099  -2
  -6   4   1 15.6960 2.63099   1
  -5   4   1 16.3233 1.01245  -2
  -5   4   1 16.3233 1.01245   1
  -4   4   0 19.1220 2.39641  -2
  -4   4   1 19.1220 2.39641   1
  -3   4   0 875.086 9.21922  -2
  -3   4   1 875.086 9.21922   1
   2  -4   1 88.9527 1.87685  -2
  -2   4   1 88.9527 1.87685   1
  -1   4   1 51.8628 1.22469   1
   0  -4   2 49.0876 1.24829  -2
   0   4   1 49.0876 1.24829   1
   1   4   1 16.7609 0.79311   1
  -2  -4   3 61.3897 1.31905  -2
   2   4   1 61.3897 1.31905   1
  -3  -4   4 26.4521 3.98784  -2
   3   4   1 26.4521 3.98784   1
  -4  -4   4 7.49534 1.38548  -2
   4   4   1 7.49534 1.38548   1
  -5  -4   5 4.22258 3.00765  -2
   5   4   1 4.22258 3.00765   1
  -7   5   2 8.80341 1.40498  -2
  -7   5   1 8.80341 1.40498   1
  -6   5   1 24.4717 1.80376  -2
  -6   5   1 24.4717 1.80376   1
  -5   5   1 8.20463 1.35742  -2
  -5   5   1 8.20463 1.35742   1
  -4   5   0 32.8162 1.38536  -2
  -4   5   1 32.8162 1.38536   1
  -3   5   1 11.1322 0.82856   1
   2  -5   1 93.8223 1.85180  -2
  -2   5   1 93.8223 1.85180   1
  -1   5   1 16.2123 0.98051   1
   0  -5   2 258.349 3.18981  -2
   0   5   1 258.349 3.18981   1
  -1  -5   3 1.54744 0.88555  -2
   1   5   1 1.54744 0.88555   1
  -2  -5   3 4.98607 1.34105  -2
   2   5   1 4.98607 1.34105   1
  -3  -5   4 46.5932 2.09347  -2
   3   5   1 46.5932 2.09347   1
  -4  -5   4 1.62063 2.06696  -2
   4   5   1 1.62063 2.06696   1
  -7   6   2 1.36384 2.32961  -2
  -7   6   1 1.36384 2.32961   1
  -6   6   1 0.96144 1.35872  -2
  -6   6   1 0.96144 1.35872   1
  -5   6   1 44.3723 1.64289   1
  -4   6   0 30.6541 1.52107  -2
  -4   6   1 30.6541 1.52107   1
   3  -6   1 46.9158 1.96455  -2
  -3   6   1 46.9158 1.96455   1
   2  -6   1 29.4010 1.61137  -2
  -2   6   1 29.4010 1.61137   1
   1  -6   2 65.5564 1.86650  -2
  -1   6   1 65.5564 1.86650   1
   0  -6   2 11.8185 2.17065  -2
   0   6   1 11.8185 2.17065   1
  -1  -6   3 19.6435 1.28520  -2
   1   6   1 19.6435 1.28520   1
   2   6   1 2.52928 0.86990   1
  -3  -6   4 2.56193 1.59546  -2
   3   6   1 2.56193 1.59546   1
  -4  -6   5 4.88415 2.20608  -2
   4   6   1 4.88415 2.20608   1
  -7   7   1 14.1335 3.99566  -2
  -7   7   1 14.1335 3.99566   1
  -6   7   1 4.07123 1.62240  -2
  -6   7   1 4.07123 1.62240   1
  -5   7   0 4.68297 1.75831  -2
  -5   7   1 4.68297 1.75831   1
  -4   7   0 5.99501 1.81586  -2
  -4   7   1 5.99501 1.81586   1
   3  -7   1 3.74250 1.41131  -2
  -3   7   1 3.74250 1.41131   1
  -2   7   1 13.2503 1.20813   1
   1  -7   2 16.9689 1.26323  -2
  -1   7   1 16.9689 1.26323   1
   0  -7   3 1.95388 2.45614  -2
   0   7   1 1.95388 2.45614   1
  -1  -7   3 10.0059 1.62936  -2
   1   7   1 10.0059 1.62936   1
  -2  -7   4 14.2647 2.32754  -2
   2   7   1 14.2647 2.32754   1
  -6   8   1 2.07797 2.11262  -2
  -6   8   1 2.07797 2.11262   1
  -5   8   0 12.2479 1.54075  -2
  -5   8   1 12.2479 1.54075   1
   4  -8   1 15.7389 2.73916  -2
  -4   8   1 15.7389 2.73916   1
   3  -8   1 8.04958 1.59255  -2
  -3   8   1 8.04958 1.59255   1
   2  -8   2 6.34256 1.83582  -2
  -2   8   1 6.34256 1.83582   1
   1  -8   2 6.31763 1.56384  -2
  -1   8   1 6.31763 1.56384   1
   0  -8   3 3.90693 1.70039  -2
   0   8   1 3.90693 1.70039   1
  -1  -8   3 12.1484 2.79110  -2
   1   8   1 12.1484 2.79110   1
   4  -9   1 26.0188 2.21324  -2
  -4   9   1 26.0188 2.21324   1
   3  -9   1 -0.2600 2.06285  -2
  -3   9   1 -0.2600 2.06285   1
   2  -9   2 120.948 2.82372  -2
  -2   9   1 120.948 2.82372   1
   1  -9   2 16.7640 4.09815  -2
  -1   9   1 16.7640 4.09815   1
   1  -9   3 13.5286 3.85659  -2
  -1   9   1 13.5286 3.85659   1
  -1   9   1 2.23710 3.98827  -2
   1  -9   2 2.23710 3.98827   1
  -2   9   1 28.6235 1.86019  -2
   2  -9   2 28.6235 1.86019   1
  -3   9   2 3.31365 2.13713  -2
   3  -9   2 3.31365 2.13713   1
  -4   9   2 15.4762 2.09949  -2
   4  -9   2 15.4762 2.09949   1
   1   8   0 3.94165 2.38222  -2
  -1  -8   2 3.94165 2.38222   1
   0   8   0 7.28232 1.73826  -2
   0  -8   2 7.28232 1.73826   1
  -1   8   1 38.6144 2.06195  -2
   1  -8   2 38.6144 2.06195   1
  -2   8   1 4.82515 1.84522  -2
   2  -8   2 4.82515 1.84522   1
  -3   8   2 61.1260 2.19193  -2
   3  -8   2 61.1260 2.19193   1
  -4   8   2 5.90819 3.82075  -2
   4  -8   2 5.90819 3.82075   1
  -5   8   3 30.3165 1.78097  -2
   5  -8   2 30.3165 1.78097   1
  -6   8   4 8.18936 2.77071  -2
   6  -8   2 8.18936 2.77071   1
  -3  -7   1 -1.9101 2.36559  -2
  -3  -7   2 -1.9101 2.36559   1
  -2  -7   1 3.85482 1.76636  -2
  -2  -7   2 3.85482 1.76636   1
   1   7   0 90.9109 2.48709  -2
  -1  -7   2 90.9109 2.48709   1
   0   7   0 174.239 3.88284  -2
   0  -7   2 174.239 3.88284   1
  -1   7   1 8.76470 1.15302  -2
   1  -7   2 8.76470 1.15302   1
  -2   7   2 -2.5536 3.26659  -2
   2  -7   2 -2.5536 3.26659   1
  -3   7   2 13.6037 1.53915  -2
   3  -7   2 13.6037 1.53915   1
  -4   7   3 7.79425 1.81775  -2
   4  -7   2 7.79425 1.81775   1
  -5   7   3 4.35796 1.75618  -2
   5  -7   2 4.35796 1.75618   1
  -6   7   4 0.36851 1.99292  -2
   6  -7   2 0.36851 1.99292   1
  -4  -6   2 0.66878 2.26402  -2
  -4  -6   2 0.66878 2.26402   1
  -3  -6   1 1.26639 1.39435  -2
  -3  -6   2 1.26639 1.39435   1
  -2  -6   2 3.66460 0.81741   1
   1   6   0 2.23771 1.10762  -2
  -1  -6   2 2.23771 1.10762   1
   0   6   1 9.67945 2.86351  -2
   0  -6   2 9.67945 2.86351   1
  -1   6   1 89.7571 2.14738  -2
   1  -6   2 89.7571 2.14738   1
  -2   6   2 107.642 2.39169  -2
   2  -6   2 107.642 2.39169   1
  -3   6   2 198.723 3.42420  -2
   3  -6   2 198.723 3.42420   1
  -4   6   3 73.0261 1.95080  -2
   4  -6   2 73.0261 1.95080   1
   5  -6   2 1.39833 0.89499   1
  -6   6   4 22.3450 1.83721  -2
   6  -6   2 22.3450 1.83721   1
  -7   6   5 44.8579 2.53013  -2
   7  -6   2 44.8579 2.53013   1
  -5  -5   2 0.64653 2.28679  -2
  -5  -5   2 0.64653 2.28679   1
  -4  -5   2 32.8613 1.63393   1
  -3  -5   1 17.7186 1.59070  -2
  -3  -5   2 17.7186 1.59070   1
   2   5   0 67.4132 1.79432  -2
  -2  -5   2 67.4132 1.79432   1
   1   5   0 66.7661 1.54535  -2
  -1  -5   2 66.7661 1.54535   1
   0   5   1 81.0639 1.80326  -2
   0  -5   2 81.0639 1.80326   1
   1  -5   2 0.69948 0.69902   1
  -2   5   2 113.730 2.08255  -2
   2  -5   2 113.730 2.08255   1
   3  -5   2 109.257 2.06435   1
  -4   5   3 19.2365 1.35544  -2
   4  -5   2 19.2365 1.35544   1
  -5   5   4 5.57487 1.42338  -2
   5  -5   2 5.57487 1.42338   1
  -6   5   4 9.59320 1.68315  -2
   6  -5   2 9.59320 1.68315   1
  -7   5   5 39.6939 1.65800  -2
   7  -5   2 39.6939 1.65800   1
  -5  -4   2 11.8746 1.74989  -2
  -5  -4   2 11.8746 1.74989   1
  -4  -4   1 7.71401 1.54170  -2
  -4  -4   2 7.71401 1.54170   1
  -3  -4   1 46.1594 4.24340  -2
  -3  -4   2 46.1594 4.24340   1
   2   4   0 14.2851 0.83949  -2
  -2  -4   2 14.2851 0.83949   1
  -1  -4   2 109.026 1.48588   1
   0   4   1 198.915 2.80720  -2
   0  -4   2 198.915 2.80720   1
   1  -4   2 2.59723 0.63225   1
  -2   4   2 1171.64 13.2979  -2
   2  -4   2 1171.64 13.2979   1
  -3   4   3 23.9278 1.29390  -2
   3  -4   2 23.9278 1.29390   1
  -4   4   3 3.85015 1.27959  -2
   4  -4   2 3.85015 1.27959   1
  -5   4   4 16.3983 0.93926  -2
   5  -4   2 16.3983 0.93926   1
  -6   4   5 5.53044 1.81860  -2
   6  -4   2 5.53044 1.81860   1
  -7   4   5 24.4072 1.70021  -2
   7  -4   2 24.4072 1.70021   1
  -6  -3   2 0.48792 2.18189  -2
  -6  -3   2 0.48792 2.18189   1
  -5  -3   2 113.875 2.47227   1
  -4  -3   1 19.9222 1.09809  -2
  -4  -3   2 19.9222 1.09809   1
   3   3   0 27.1044 1.95441  -2
  -3  -3   2 27.1044 1.95441   1
   2   3   0 12.4765 0.88504  -2
  -2  -3   2 12.4765 0.88504   1
   1   3   1 132.913 2.16516  -2
  -1  -3   2 132.913 2.16516   1
   0  -3   2 134.124 1.73570   1
  -1   3   2 247.938 3.26440  -2
   1  -3   2 247.938 3.26440   1
   2  -3   2 1056.67 11.8569   1
  -3   3   3 51.5837 1.21110  -2
   3  -3   2 51.5837 1.21110   1
  -4   3   4 3.86416 1.94615  -2
   4  -3   2 3.86416 1.94615   1
  -5   3   4 1.52325 1.08321  -2
   5  -3   2 1.52325 1.08321   1
  -6   3   5 15.8705 1.54416  -2
   6  -3   2 15.8705 1.54416   1
  -7   3   5 103.496 2.60365  -2
   7  -3   2 103.496 2.60365   1
  -6  -2   2 5.08166 2.16438  -2
  -6  -2   2 5.08166 2.16438   1
  -5  -2   1 27.7402 1.67008  -2
  -5  -2   2 27.7402 1.67008   1
  -4  -2   1 101.182 1.69650  -2
  -4  -2   2 101.182 1.69650   1
   3   2   0 16.8797 0.79939  -2
  -3  -2   2 16.8797 0.79939   1
   2   2   0 187.253 3.70939  -2
  -2  -2   2 187.253 3.70939   1
   1   2   1 124.962 1.54916  -2
  -1  -2   2 124.962 1.54916   1
   0  -2   2 362.248 3.76490   1
  -1   2   2 552.232 6.35099  -2
   1  -2   2 552.232 6.35099   1
   2  -2   2 1161.04 12.8077   1
  -3   2   3 37.8729 1.01368  -2
   3  -2   2 37.8729 1.01368   1
  -4   2   4 98.1161 1.63327  -2
   4  -2   2 98.1161 1.63327   1
  -5   2   4 14.3820 1.71285  -2
   5  -2   2 14.3820 1.71285   1
  -6   2   5 18.2544 1.17389  -2
   6  -2   2 18.2544 1.17389   1
  -7   2   6 2.33506 2.08730  -2
   7  -2   2 2.33506 2.08730   1
  -7  -1   2 44.0332 3.10144  -2
  -7  -1   2 44.0332 3.10144   1
  -6  -1   2 21.7074 1.61534  -2
  -6  -1   2 21.7074 1.61534   1
  -5  -1   1 281.712 3.97472  -2
  -5  -1   2 281.712 3.97472   1
  -4  -1   2 182.291 2.24802   1
   3   1   0 34.0652 0.81061  -2
  -3  -1   2 34.0652 0.81061   1
   2   1   1 349.209 10.8827  -2
  -2  -1   2 349.209 10.8827   1
   1   1   1 280.626 4.04398  -2
  -1  -1   2 280.626 4.04398   1
   0  -1   2 433.826 4.32013   1
   1  -1   2 20.8630 0.61992   1
  -2   1   3 148.176 1.61435  -2
   2  -1   2 148.176 1.61435   1
   3  -1   2 165.021 2.60809   1
  -4   1   4 58.7944 1.48802  -2
   4  -1   2 58.7944 1.48802   1
  -5   1   5 38.4704 1.81968  -2
   5  -1   2 38.4704 1.81968   1
  -6   1   5 48.7088 1.51893  -2
   6  -1   2 48.7088 1.51893   1
  -7   1   6 14.2827 3.04372  -2
   7  -1   2 14.2827 3.04372   1
  -7   0   2 6.91331 1.23326  -2
  -7   0   2 6.91331 1.23326   1
  -6   0   2 64.5435 1.73738   1
  -5   0   1 54.5187 1.16399  -2
  -5   0   2 54.5187 1.16399   1
   4   0   0 11.9120 0.80854  -2
  -4   0   2 11.9120 0.80854   1
   3   0   0 46.7438 1.74987  -2
  -3   0   2 46.7438 1.74987   1
   2   0   1 99.9337 1.03442  -2
  -2   0   2 99.9337 1.03442   1
  -1   0   2 898.747 6.92443   1
   0   0   2 544.302 4.85763  -2
   0   0   2 544.302 4.85763   1
   1   0   2 50.0753 0.83899   1
  -2   0   3 226.796 3.61329  -2
   2   0   2 226.796 3.61329   1
  -3   0   4 77.2807 2.73780  -2
   3   0   2 77.2807 2.73780   1
  -4   0   4 36.8980 2.70742  -2
   4   0   2 36.8980 2.70742   1
  -5   0   5 17.1798 2.39152  -2
   5   0   2 17.1798 2.39152   1
   6   0   2 41.0509 2.24432   1
  -7   0   6 2.23776 2.49214  -2
   7   0   2 2.23776 2.49214   1
  -7   1   2 7.07701 1.46523  -2
  -7   1   2 7.07701 1.46523   1
  -6   1   1 285.047 4.18493  -2
  -6   1   2 285.047 4.18493   1
  -5   1   1 46.1043 1.66758  -2
  -5   1   2 46.1043 1.66758   1
  -4   1   0 222.339 2.54444  -2
  -4   1   2 222.339 2.54444   1
  -3   1   2 2.72997 0.37477   1
   2  -1   1 128.236 1.55789  -2
  -2   1   2 128.236 1.55789   1
  -1   1   2 452.505 4.27770   1
   0   1   2 18.3035 0.40986   1
  -1  -1   3 148.511 5.30907  -2
   1   1   2 148.511 5.30907   1
   2   1   2 938.421 12.6862   1
  -3  -1   4 71.6407 2.00518  -2
   3   1   2 71.6407 2.00518   1
   4   1   2 13.7422 1.50670   1
  -5  -1   5 3.55593 1.68910  -2
   5   1   2 3.55593 1.68910   1
  -6  -1   6 61.5698 3.31257  -2
   6   1   2 61.5698 3.31257   1
  -7  -1   6 3.77835 3.56497  -2
   7   1   2 3.77835 3.56497   1
  -8   2   2 29.4886 4.52444  -2
  -8   2   2 29.4886 4.52444   1
  -7   2   2 21.7343 2.40650  -2
  -7   2   2 21.7343 2.40650   1
  -6   2   1 105.513 2.50321  -2
  -6   2   2 105.513 2.50321   1
  -5   2   2 5.79861 0.70694   1
  -4   2   0 5.87172 0.75359  -2
  -4   2   2 5.87172 0.75359   1
   3  -2   1 160.175 2.87116  -2
  -3   2   2 160.175 2.87116   1
  -2   2   2 622.610 6.45610   1
   1  -2   2 1561.35 15.5366  -2
  -1   2   2 1561.35 15.5366   1
   0   2   2 4.77186 0.41553   1
  -1  -2   3 115.203 1.28477  -2
   1   2   2 115.203 1.28477   1
   2   2   2 398.791 6.81679   1
  -3  -2   4 34.1780 1.86410  -2
   3   2   2 34.1780 1.86410   1
  -4  -2   5 15.0099 2.11205  -2
   4   2   2 15.0099 2.11205   1
  -5  -2   5 23.8182 2.67295  -2
   5   2   2 23.8182 2.67295   1
  -6  -2   6 7.84791 2.23118  -2
   6   2   2 7.84791 2.23118   1
  -8   3   2 7.83012 1.51679  -2
  -8   3   2 7.83012 1.51679   1
  -7   3   1 70.7887 2.97873  -2
  -7   3   2 70.7887 2.97873   1
  -6   3   1 17.0999 1.33700  -2
  -6   3   2 17.0999 1.33700   1
  -5   3   0 57.3439 1.33091  -2
  -5   3   2 57.3439 1.33091   1
  -4   3   0 14.5706 2.33463  -2
  -4   3   2 14.5706 2.33463   1
   3  -3   1 158.557 2.15950  -2
  -3   3   2 158.557 2.15950   1
  -2   3   2 310.426 3.57316   1
   1  -3   2 66.3287 1.43690  -2
  -1   3   2 66.3287 1.43690   1
   0   3   2 0.08492 0.42645   1
  -1  -3   3 900.928 19.5774  -2
   1   3   2 900.928 19.5774   1
  -2  -3   4 96.1496 1.54971  -2
   2   3   2 96.1496 1.54971   1
   3   3   2 121.711 2.92107   1
  -4  -3   5 2.88552 1.56360  -2
   4   3   2 2.88552 1.56360   1
   5   3   2 3.40724 1.49858   1
  -6  -3   6 3.52487 2.27550  -2
   6   3   2 3.52487 2.27550   1
  -8   4   2 33.1625 2.21907  -2
  -8   4   2 33.1625 2.21907   1
  -7   4   1 25.5599 1.49876  -2
  -7   4   2 25.5599 1.49876   1
  -6   4   1 44.6842 3.17165  -2
  -6   4   2 44.6842 3.17165   1
  -5   4   0 23.2559 1.08976  -2
  -5   4   2 23.2559 1.08976   1
   4  -4   1 63.3891 2.21624  -2
  -4   4   2 63.3891 2.21624   1
   3  -4   1 45.9875 1.38072  -2
  -3   4   2 45.9875 1.38072   1
   2  -4   2 325.038 4.28992  -2
  -2   4   2 325.038 4.28992   1
  -1   4   2 255.414 3.40226   1
   0  -4   3 115.454 1.71053  -2
   0   4   2 115.454 1.71053   1
   1   4   2 12.2397 0.63161   1
  -2  -4   4 13.0205 0.85306  -2
   2   4   2 13.0205 0.85306   1
  -3  -4   5 27.3610 1.64198  -2
   3   4   2 27.3610 1.64198   1
  -4  -4   5 19.4335 1.42370  -2
   4   4   2 19.4335 1.42370   1
  -5  -4   6 9.82730 3.16965  -2
   5   4   2 9.82730 3.16965   1
  -7   5   1 0.82741 1.42513  -2
  -7   5   2 0.82741 1.42513   1
  -6   5   0 23.6738 2.03403  -2
  -6   5   2 23.6738 2.03403   1
  -5   5   0 76.6443 1.96292  -2
  -5   5   2 76.6443 1.96292   1
   4  -5   1 45.5424 1.52048  -2
  -4   5   2 45.5424 1.52048   1
  -3   5   2 5.04502 0.74452   1
   2  -5   2 30.0266 1.18552  -2
  -2   5   2 30.0266 1.18552   1
  -1   5   2 2.00489 0.68128   1
   0  -5   3 20.8798 1.09888  -2
   0   5   2 20.8798 1.09888   1
  -1  -5   4 56.4074 2.27398  -2
   1   5   2 56.4074 2.27398   1
  -2  -5   4 18.7203 1.47177  -2
   2   5   2 18.7203 1.47177   1
  -3  -5   5 32.5475 1.90529  -2
   3   5   2 32.5475 1.90529   1
   4   5   2 5.66376 1.09306   1
  -7   6   1 4.85199 2.39663  -2
  -7   6   2 4.85199 2.39663   1
  -6   6   0 -0.3496 1.33383  -2
  -6   6   2 -0.3496 1.33383   1
  -5   6   2 14.2983 1.33445   1
   4  -6   1 9.62595 1.27157  -2
  -4   6   2 9.62595 1.27157   1
   3  -6   2 79.3030 2.24229  -2
  -3   6   2 79.3030 2.24229   1
   2  -6   2 23.4240 1.57217  -2
  -2   6   2 23.4240 1.57217   1
   1  -6   3 32.5819 1.57913  -2
  -1   6   2 32.5819 1.57913   1
   0  -6   3 17.1765 1.63804  -2
   0   6   2 17.1765 1.63804   1
  -1  -6   4 20.6776 1.30956  -2
   1   6   2 20.6776 1.30956   1
   2   6   2 54.4593 1.64829   1
  -3  -6   5 10.9950 1.75030  -2
   3   6   2 10.9950 1.75030   1
  -7   7   0 13.9931 4.05789  -2
  -7   7   2 13.9931 4.05789   1
  -6   7   0 7.04800 1.63935  -2
  -6   7   2 7.04800 1.63935   1
   5  -7   1 30.9735 2.05851  -2
  -5   7   2 30.9735 2.05851   1
   4  -7   1 12.7558 1.86917  -2
  -4   7   2 12.7558 1.86917   1
   3  -7   2 10.4065 1.47061  -2
  -3   7   2 10.4065 1.47061   1
  -2   7   2 4.67381 0.95243   1
   1  -7   3 61.6140 1.57622  -2
  -1   7   2 61.6140 1.57622   1
   0  -7   4 10.7581 1.92797  -2
   0   7   2 10.7581 1.92797   1
  -1  -7   4 14.7952 1.66148  -2
   1   7   2 14.7952 1.66148   1
  -2  -7   5 4.12345 2.23329  -2
   2   7   2 4.12345 2.23329   1
  -6   8   0 5.53469 2.61948  -2
  -6   8   2 5.53469 2.61948   1
   5  -8   1 9.87363 1.45066  -2
  -5   8   2 9.87363 1.45066   1
   4  -8   2 48.6782 3.06191  -2
  -4   8   2 48.6782 3.06191   1
   3  -8   2 35.1883 1.87758  -2
  -3   8   2 35.1883 1.87758   1
   2  -8   3 6.69064 1.80705  -2
  -2   8   2 6.69064 1.80705   1
   1  -8   3 31.2178 2.07425  -2
  -1   8   2 31.2178 2.07425   1
   0  -8   4 14.0892 1.81325  -2
   0   8   2 14.0892 1.81325   1
  -1  -8   4 5.83523 2.13430  -2
   1   8   2 5.83523 2.13430   1
   4  -9   2 3.87802 2.00082  -2
  -4   9   2 3.87802 2.00082   1
   3  -9   2 2.31861 2.09689  -2
  -3   9   2 2.31861 2.09689   1
   2  -9   3 3.05209 1.38310  -2
  -2   9   2 3.05209 1.38310   1
   1  -9   3 11.5471 4.06192  -2
  -1   9   2 11.5471 4.06192   1
  -1   9   2 25.5951 4.41071  -2
   1  -9   3 25.5951 4.41071   1
  -2   9   2 7.50603 1.52819  -2
   2  -9   3 7.50603 1.52819   1
  -3   9   3 4.23614 2.18393  -2
   3  -9   3 4.23614 2.18393   1
  -4   9   3 2.93986 2.01517  -2
   4  -9   3 2.93986 2.01517   1
   1   8   1 8.67007 3.45758  -2
  -1  -8   3 8.67007 3.45758   1
   0   8   1 5.98797 1.73714  -2
   0  -8   3 5.98797 1.73714   1
  -1   8   2 9.98192 1.80051  -2
   1  -8   3 9.98192 1.80051   1
  -2   8   2 5.83463 1.95762  -2
   2  -8   3 5.83463 1.95762   1
  -3   8   3 5.83069 1.68364  -2
   3  -8   3 5.83069 1.68364   1
   4  -8   3 55.4424 2.41226   1
  -5   8   4 54.5909 2.04607  -2
   5  -8   3 54.5909 2.04607   1
   6  -8   3 0.12504 1.08803   1
   3   7   0 22.9588 2.65706  -2
  -3  -7   3 22.9588 2.65706   1
   2   7   0 8.32417 1.83793  -2
  -2  -7   3 8.32417 1.83793   1
   1   7   1 3.26994 1.63573  -2
  -1  -7   3 3.26994 1.63573   1
   0   7   1 5.26329 2.19163  -2
   0  -7   3 5.26329 2.19163   1
  -1   7   2 22.9820 1.35341  -2
   1  -7   3 22.9820 1.35341   1
  -2   7   3 11.4364 3.37048  -2
   2  -7   3 11.4364 3.37048   1
  -3   7   3 13.5530 1.53195  -2
   3  -7   3 13.5530 1.53195   1
  -4   7   4 96.4064 2.62757  -2
   4  -7   3 96.4064 2.62757   1
  -5   7   4 8.50301 1.77432  -2
   5  -7   3 8.50301 1.77432   1
  -6   7   5 6.94410 2.06155  -2
   6  -7   3 6.94410 2.06155   1
  -4  -6   1 34.5535 2.43705  -2
  -4  -6   3 34.5535 2.43705   1
   3   6   0 4.80477 1.35482  -2
  -3  -6   3 4.80477 1.35482   1
  -2  -6   3 1.14680 0.76764   1
   1   6   1 70.1965 1.86904  -2
  -1  -6   3 70.1965 1.86904   1
   0   6   2 46.4577 1.87538  -2
   0  -6   3 46.4577 1.87538   1
  -1   6   2 24.9840 1.58584  -2
   1  -6   3 24.9840 1.58584   1
  -2   6   3 20.1773 1.58779  -2
   2  -6   3 20.1773 1.58779   1
  -3   6   3 242.885 3.87468  -2
   3  -6   3 242.885 3.87468   1
  -4   6   4 6.28921 1.27929  -2
   4  -6   3 6.28921 1.27929   1
   5  -6   3 -0.1195 1.02833   1
  -6   6   5 37.3280 2.04667  -2
   6  -6   3 37.3280 2.04667   1
  -7   6   6 6.69948 2.11316  -2
   7  -6   3 6.69948 2.11316   1
  -5  -5   1 0.16509 3.22797  -2
  -5  -5   3 0.16509 3.22797   1
   4   5   0 75.9135 3.12479  -2
  -4  -5   3 75.9135 3.12479   1
   3   5   0 44.7984 1.54248  -2
  -3  -5   3 44.7984 1.54248   1
   2   5   1 17.7386 1.41524  -2
  -2  -5   3 17.7386 1.41524   1
   1   5   1 0.71361 1.05984  -2
  -1  -5   3 0.71361 1.05984   1
   0   5   2 44.3468 1.43978  -2
   0  -5   3 44.3468 1.43978   1
   1  -5   3 3.46297 0.72610   1
  -2   5   3 59.5443 1.50450  -2
   2  -5   3 59.5443 1.50450   1
   3  -5   3 142.065 2.43511   1
  -4   5   4 38.0874 1.55476  -2
   4  -5   3 38.0874 1.55476   1
  -5   5   5 120.342 2.47765  -2
   5  -5   3 120.342 2.47765   1
  -6   5   5 55.2584 1.90557  -2
   6  -5   3 55.2584 1.90557   1
  -7   5   6 8.94471 1.94446  -2
   7  -5   3 8.94471 1.94446   1
  -5  -4   1 14.3703 1.88607  -2
  -5  -4   3 14.3703 1.88607   1
   4   4   0 1.07276 1.56899  -2
  -4  -4   3 1.07276 1.56899   1
   3   4   0 11.6386 3.81405  -2
  -3  -4   3 11.6386 3.81405   1
   2   4   1 41.8640 0.91023  -2
  -2  -4   3 41.8640 0.91023   1
  -1  -4   3 45.4648 1.02922   1
   0   4   2 321.207 4.14718  -2
   0  -4   3 321.207 4.14718   1
  -1   4   3 201.968 5.24199  -2
   1  -4   3 201.968 5.24199   1
  -2   4   3 89.5872 1.90173  -2
   2  -4   3 89.5872 1.90173   1
  -3   4   4 370.827 4.78386  -2
   3  -4   3 370.827 4.78386   1
  -4   4   4 11.2513 1.35599  -2
   4  -4   3 11.2513 1.35599   1
  -5   4   5 79.6987 1.55971  -2
   5  -4   3 79.6987 1.55971   1
  -6   4   6 43.8829 2.77129  -2
   6  -4   3 43.8829 2.77129   1
  -7   4   6 20.3584 1.61633  -2
   7  -4   3 20.3584 1.61633   1
  -6  -3   1 33.4839 2.63050  -2
  -6  -3   3 33.4839 2.63050   1
  -5  -3   3 18.4174 1.33727   1
   4   3   0 466.011 5.98007  -2
  -4  -3   3 466.011 5.98007   1
   3   3   1 236.649 5.59688  -2
  -3  -3   3 236.649 5.59688   1
   2   3   1 8.82989 0.63528  -2
  -2  -3   3 8.82989 0.63528   1
   1   3   2 254.807 3.49445  -2
  -1  -3   3 254.807 3.49445   1
   0  -3   3 41.9798 0.90505   1
  -1   3   3 14.9476 1.00004  -2
   1  -3   3 14.9476 1.00004   1
   2  -3   3 440.687 6.55032   1
  -3   3   4 147.798 2.20478  -2
   3  -3   3 147.798 2.20478   1
   4  -3   3 4.01913 0.50794   1
  -5   3   5 301.277 3.85514  -2
   5  -3   3 301.277 3.85514   1
  -6   3   6 1.74641 1.42272  -2
   6  -3   3 1.74641 1.42272   1
  -7   3   6 3.81438 1.72922  -2
   7  -3   3 3.81438 1.72922   1
  -6  -2   1 17.0377 1.47762  -2
  -6  -2   3 17.0377 1.47762   1
   5   2   0 12.8102 1.61333  -2
  -5  -2   3 12.8102 1.61333   1
   4   2   0 126.782 1.97255  -2
  -4  -2   3 126.782 1.97255   1
   3   2   1 43.2433 1.05839  -2
  -3  -2   3 43.2433 1.05839   1
   2   2   1 104.192 2.58699  -2
  -2  -2   3 104.192 2.58699   1
   1   2   2 262.288 2.88584  -2
  -1  -2   3 262.288 2.88584   1
   0  -2   3 759.034 7.56205   1
  -1   2   3 114.951 1.77822  -2
   1  -2   3 114.951 1.77822   1
   2  -2   3 6.24176 0.58249   1
  -3   2   4 312.447 3.59127  -2
   3  -2   3 312.447 3.59127   1
  -4   2   5 113.924 2.11091  -2
   4  -2   3 113.924 2.11091   1
  -5   2   5 0.50109 1.77161  -2
   5  -2   3 0.50109 1.77161   1
  -6   2   6 14.1304 1.13458  -2
   6  -2   3 14.1304 1.13458   1
  -7   2   7 23.3023 2.32065  -2
   7  -2   3 23.3023 2.32065   1
  -7  -1   1 47.5832 2.96831  -2
  -7  -1   3 47.5832 2.96831   1
  -6  -1   1 7.06381 1.60295  -2
  -6  -1   3 7.06381 1.60295   1
   5   1   0 457.576 5.87339  -2
  -5  -1   3 457.576 5.87339   1
  -4  -1   3 1.52510 0.53556   1
   3   1   1 43.1415 0.96592  -2
  -3  -1   3 43.1415 0.96592   1
   2   1   2 114.641 4.65800  -2
  -2  -1   3 114.641 4.65800   1
   1   1   2 138.795 1.57178  -2
  -1  -1   3 138.795 1.57178   1
   0   1   3 251.089 3.76464  -2
   0  -1   3 251.089 3.76464   1
   1  -1   3 1109.64 10.4633   1
  -2   1   4 26.8166 0.65029  -2
   2  -1   3 26.8166 0.65029   1
   3  -1   3 157.670 2.51103   1
  -4   1   5 193.224 3.14530  -2
   4  -1   3 193.224 3.14530   1
  -5   1   6 18.6423 1.37663  -2
   5  -1   3 18.6423 1.37663   1
  -6   1   6 105.320 2.05759  -2
   6  -1   3 105.320 2.05759   1
  -7   1   7 6.55820 2.82661  -2
   7  -1   3 6.55820 2.82661   1
  -7   0   1 11.8356 1.38364  -2
  -7   0   3 11.8356 1.38364   1
  -6   0   3 11.9260 1.15223   1
   5   0   0 191.901 2.33501  -2
  -5   0   3 191.901 2.33501   1
   4   0   1 179.676 2.39876  -2
  -4   0   3 179.676 2.39876   1
   3   0   1 233.423 3.27697  -2
  -3   0   3 233.423 3.27697   1
   2   0   2 70.3508 0.88708  -2
  -2   0   3 70.3508 0.88708   1
  -1   0   3 105.457 1.03486   1
   0   0   3 1237.11 10.8447  -2
   0   0   3 1237.11 10.8447   1
   1   0   3 102.894 0.95373   1
  -2   0   4 718.924 9.83682  -2
   2   0   3 718.924 9.83682   1
  -3   0   5 290.505 4.12349  -2
   3   0   3 290.505 4.12349   1
  -4   0   5 34.9119 2.67980  -2
   4   0   3 34.9119 2.67980   1
  -5   0   6 32.7511 2.56169  -2
   5   0   3 32.7511 2.56169   1
   6   0   3 2.38701 1.44313   1
  -7   0   7 -0.8144 2.44433  -2
   7   0   3 -0.8144 2.44433   1
  -7   1   1 13.2766 1.56081  -2
  -7   1   3 13.2766 1.56081   1
  -6   1   0 38.0021 1.65664  -2
  -6   1   3 38.0021 1.65664   1
  -5   1   0 63.7577 2.19673  -2
  -5   1   3 63.7577 2.19673   1
   4  -1   1 23.9371 0.82705  -2
  -4   1   3 23.9371 0.82705   1
  -3   1   3 265.866 2.58103   1
   2  -1   2 602.555 5.86885  -2
  -2   1   3 602.555 5.86885   1
  -1   1   3 119.801 1.27513   1
   0   1   3 225.684 1.99004   1
  -1  -1   4 129.665 2.33855  -2
   1   1   3 129.665 2.33855   1
   2   1   3 147.317 2.17241   1
  -3  -1   5 56.9454 1.83646  -2
   3   1   3 56.9454 1.83646   1
   4   1   3 227.256 4.22907   1
  -5  -1   6 24.8894 1.96879  -2
   5   1   3 24.8894 1.96879   1
  -6  -1   7 0.93344 3.24895  -2
   6   1   3 0.93344 3.24895   1
  -7  -1   7 3.76825 4.30176  -2
   7   1   3 3.76825 4.30176   1
  -7   2   1 21.2761 2.42472  -2
  -7   2   3 21.2761 2.42472   1
  -6   2   0 3.64307 1.01619  -2
  -6   2   3 3.64307 1.01619   1
  -5   2   3 102.397 1.83498   1
   4  -2   1 7.72086 0.81469  -2
  -4   2   3 7.72086 0.81469   1
   3  -2   2 188.297 3.26034  -2
  -3   2   3 188.297 3.26034   1
  -2   2   3 889.240 9.07153   1
   1  -2   3 632.080 6.57678  -2
  -1   2   3 632.080 6.57678   1
   0   2   3 474.846 4.42448   1
  -1  -2   4 21.7752 0.55437  -2
   1   2   3 21.7752 0.55437   1
   2   2   3 6.08443 1.06205   1
  -3  -2   5 4.10443 1.59163  -2
   3   2   3 4.10443 1.59163   1
  -4  -2   6 27.2888 2.27531  -2
   4   2   3 27.2888 2.27531   1
  -5  -2   6 2.50161 2.51516  -2
   5   2   3 2.50161 2.51516   1
  -6  -2   7 12.3917 2.32934  -2
   6   2   3 12.3917 2.32934   1
  -8   3   1 39.4737 1.89770  -2
  -8   3   3 39.4737 1.89770   1
  -7   3   0 46.8493 2.43285  -2
  -7   3   3 46.8493 2.43285   1
  -6   3   0 5.57409 1.28131  -2
  -6   3   3 5.57409 1.28131   1
   5  -3   1 264.758 3.33086  -2
  -5   3   3 264.758 3.33086   1
   4  -3   1 33.9136 1.74936  -2
  -4   3   3 33.9136 1.74936   1
   3  -3   2 85.8714 1.50610  -2
  -3   3   3 85.8714 1.50610   1
  -2   3   3 53.5947 1.06044   1
   1  -3   3 66.8913 1.45889  -2
  -1   3   3 66.8913 1.45889   1
   0   3   3 108.125 1.51047   1
  -1  -3   4 -0.2006 1.16349  -2
   1   3   3 -0.2006 1.16349   1
  -2  -3   5 14.9509 0.87451  -2
   2   3   3 14.9509 0.87451   1
   3   3   3 5.37023 1.21257   1
  -4  -3   6 95.2527 2.90604  -2
   4   3   3 95.2527 2.90604   1
  -5  -3   7 24.3925 4.99793  -2
   5   3   3 24.3925 4.99793   1
  -6  -3   7 4.62735 2.33902  -2
   6   3   3 4.62735 2.33902   1
  -8   4   1 1.71497 1.98590  -2
  -8   4   3 1.71497 1.98590   1
  -7   4   0 8.26213 1.35938  -2
  -7   4   3 8.26213 1.35938   1
  -6   4   3 55.2172 1.69881   1
   5  -4   1 1.70071 0.90980  -2
  -5   4   3 1.70071 0.90980   1
   4  -4   2 13.7865 1.85004  -2
  -4   4   3 13.7865 1.85004   1
   3  -4   2 17.5151 1.17396  -2
  -3   4   3 17.5151 1.17396   1
   2  -4   3 429.818 6.72961  -2
  -2   4   3 429.818 6.72961   1
  -1   4   3 24.5488 0.99637   1
   0  -4   4 62.3983 1.24674  -2
   0   4   3 62.3983 1.24674   1
   1   4   3 0.07465 0.45052   1
  -2  -4   5 13.1703 0.94887  -2
   2   4   3 13.1703 0.94887   1
  -3  -4   6 52.8565 4.28755  -2
   3   4   3 52.8565 4.28755   1
  -4  -4   6 20.1186 1.54351  -2
   4   4   3 20.1186 1.54351   1
  -5  -4   7 3.43963 4.33089  -2
   5   4   3 3.43963 4.33089   1
  -7   5   0 1.78416 1.43573  -2
  -7   5   3 1.78416 1.43573   1
   6  -5   1 9.21074 1.54340  -2
  -6   5   3 9.21074 1.54340   1
   5  -5   1 8.93760 1.58523  -2
  -5   5   3 8.93760 1.58523   1
   4  -5   2 70.1775 1.74281  -2
  -4   5   3 70.1775 1.74281   1
  -3   5   3 15.8836 1.00603   1
   2  -5   3 35.7406 1.25682  -2
  -2   5   3 35.7406 1.25682   1
  -1   5   3 2.89352 0.70226   1
   0  -5   4 11.5995 1.01903  -2
   0   5   3 11.5995 1.01903   1
  -1  -5   5 5.41415 1.07101  -2
   1   5   3 5.41415 1.07101   1
  -2  -5   5 106.557 2.95531  -2
   2   5   3 106.557 2.95531   1
  -3  -5   6 30.3778 1.88907  -2
   3   5   3 30.3778 1.88907   1
   4   5   3 -0.0439 1.00693   1
  -7   6   0 17.3684 2.47948  -2
  -7   6   3 17.3684 2.47948   1
   6  -6   1 -1.6322 1.32195  -2
  -6   6   3 -1.6322 1.32195   1
  -5   6   3 6.11268 1.06172   1
   4  -6   2 70.6149 1.93693  -2
  -4   6   3 70.6149 1.93693   1
   3  -6   3 58.7241 2.55755  -2
  -3   6   3 58.7241 2.55755   1
   2  -6   3 15.8803 1.52510  -2
  -2   6   3 15.8803 1.52510   1
   1  -6   4 79.9722 1.80991  -2
  -1   6   3 79.9722 1.80991   1
   0  -6   4 27.7648 1.69173  -2
   0   6   3 27.7648 1.69173   1
  -1  -6   5 7.38241 0.98715  -2
   1   6   3 7.38241 0.98715   1
   2   6   3 5.18382 1.21482   1
  -3  -6   6 36.9466 2.14886  -2
   3   6   3 36.9466 2.14886   1
   7  -7   1 -4.0661 3.90654  -2
  -7   7   3 -4.0661 3.90654   1
   6  -7   1 3.60556 1.67788  -2
  -6   7   3 3.60556 1.67788   1
   5  -7   2 7.22613 1.85336  -2
  -5   7   3 7.22613 1.85336   1
   4  -7   2 18.3771 1.95133  -2
  -4   7   3 18.3771 1.95133   1
   3  -7   3 17.7042 1.57309  -2
  -3   7   3 17.7042 1.57309   1
  -2   7   3 4.34936 0.96223   1
   1  -7   4 15.4257 1.15676  -2
  -1   7   3 15.4257 1.15676   1
   0  -7   5 39.7633 2.69481  -2
   0   7   3 39.7633 2.69481   1
  -1  -7   5 27.9093 1.41588  -2
   1   7   3 27.9093 1.41588   1
  -2  -7   6 20.9372 2.37617  -2
   2   7   3 20.9372 2.37617   1
   6  -8   1 30.9301 2.97662  -2
  -6   8   3 30.9301 2.97662   1
   5  -8   2 8.93249 1.54892  -2
  -5   8   3 8.93249 1.54892   1
   4  -8   3 99.3060 5.25482  -2
  -4   8   3 99.3060 5.25482   1
   3  -8   3 26.9940 1.79167  -2
  -3   8   3 26.9940 1.79167   1
   2  -8   4 3.67558 1.61373  -2
  -2   8   3 3.67558 1.61373   1
   1  -8   4 4.77497 1.83329  -2
  -1   8   3 4.77497 1.83329   1
   0  -8   5 -0.1657 1.64947  -2
   0   8   3 -0.1657 1.64947   1
  -1  -8   5 3.42937 2.37801  -2
   1   8   3 3.42937 2.37801   1
   4  -9   3 -1.1943 1.98830  -2
  -4   9   3 -1.1943 1.98830   1
   3  -9   3 9.17171 2.17024  -2
  -3   9   3 9.17171 2.17024   1
   2  -9   4 4.70272 1.60480  -2
  -2   9   3 4.70272 1.60480   1
   1  -9   4 -3.5371 3.76246  -2
  -1   9   3 -3.5371 3.76246   1
   1  -9   4 11.0750 1.60792   1
  -2   9   3 19.0316 1.71138  -2
   2  -9   4 19.0316 1.71138   1
  -3   9   4 1.36032 2.24161  -2
   3  -9   4 1.36032 2.24161   1
  -4   9   4 9.40842 2.16421  -2
   4  -9   4 9.40842 2.16421   1
   1   8   2 25.7774 2.37780  -2
  -1  -8   4 25.7774 2.37780   1
   0   8   2 42.9112 2.46786  -2
   0  -8   4 42.9112 2.46786   1
  -1   8   3 11.6494 1.87131  -2
   1  -8   4 11.6494 1.87131   1
  -2   8   3 9.36454 1.98332  -2
   2  -8   4 9.36454 1.98332   1
  -3   8   4 25.7459 1.86767  -2
   3  -8   4 25.7459 1.86767   1
   4  -8   4 12.1397 1.56157   1
  -5   8   5 31.6864 1.79713  -2
   5  -8   4 31.6864 1.79713   1
  -3  -7   4 9.45109 1.52967   1
   2   7   1 10.9171 1.86590  -2
  -2  -7   4 10.9171 1.86590   1
   1   7   2 36.2384 1.97009  -2
  -1  -7   4 36.2384 1.97009   1
   0   7   2 51.4643 2.67623  -2
   0  -7   4 51.4643 2.67623   1
  -1   7   3 14.1469 1.30120  -2
   1  -7   4 14.1469 1.30120   1
  -2   7   4 42.0257 3.89230  -2
   2  -7   4 42.0257 3.89230   1
  -3   7   4 14.4878 1.56427  -2
   3  -7   4 14.4878 1.56427   1
  -4   7   5 47.3026 2.20403  -2
   4  -7   4 47.3026 2.20403   1
  -5   7   5 34.7654 2.01391  -2
   5  -7   4 34.7654 2.01391   1
  -6   7   6 42.5895 2.53351  -2
   6  -7   4 42.5895 2.53351   1
   4   6   0 2.30040 2.20020  -2
  -4  -6   4 2.30040 2.20020   1
   3   6   1 3.44238 1.33888  -2
  -3  -6   4 3.44238 1.33888   1
  -2  -6   4 4.35125 1.05832   1
   1   6   2 43.5331 1.21807  -2
  -1  -6   4 43.5331 1.21807   1
   0   6   3 98.4808 2.35740  -2
   0  -6   4 98.4808 2.35740   1
  -1   6   3 74.5969 2.05035  -2
   1  -6   4 74.5969 2.05035   1
  -2   6   4 38.7457 1.79277  -2
   2  -6   4 38.7457 1.79277   1
  -3   6   4 62.4774 2.14673  -2
   3  -6   4 62.4774 2.14673   1
  -4   6   5 97.3967 2.18802  -2
   4  -6   4 97.3967 2.18802   1
   5  -6   4 10.7938 1.32330   1
  -6   6   6 6.38841 1.67165  -2
   6  -6   4 6.38841 1.67165   1
  -7   6   7 9.97414 2.11317  -2
   7  -6   4 9.97414 2.11317   1
   4   5   1 4.32679 4.47617  -2
  -4  -5   4 4.32679 4.47617   1
   3   5   1 60.1920 1.72564  -2
  -3  -5   4 60.1920 1.72564   1
   2   5   2 70.1196 1.89796  -2
  -2  -5   4 70.1196 1.89796   1
   1   5   2 10.2567 1.17971  -2
  -1  -5   4 10.2567 1.17971   1
   0   5   3 51.6368 1.55854  -2
   0  -5   4 51.6368 1.55854   1
   1  -5   4 0.50144 0.66395   1
  -2   5   4 45.0447 1.39479  -2
   2  -5   4 45.0447 1.39479   1
  -3   5   5 34.4942 2.98767  -2
   3  -5   4 34.4942 2.98767   1
  -4   5   5 96.6594 2.12968  -2
   4  -5   4 96.6594 2.12968   1
  -5   5   6 3.51066 1.44655  -2
   5  -5   4 3.51066 1.44655   1
  -6   5   6 208.537 3.91130  -2
   6  -5   4 208.537 3.91130   1
  -7   5   7 2.72693 1.90713  -2
   7  -5   4 2.72693 1.90713   1
   5   4   0 36.0287 2.07197  -2
  -5  -4   4 36.0287 2.07197   1
   4   4   1 7.88961 1.55107  -2
  -4  -4   4 7.88961 1.55107   1
   3   4   1 162.392 3.25801  -2
  -3  -4   4 162.392 3.25801   1
   2   4   2 2.91466 0.65106  -2
  -2  -4   4 2.91466 0.65106   1
  -1  -4   4 31.5158 0.95396   1
   0   4   3 124.945 1.85210  -2
   0  -4   4 124.945 1.85210   1
   1  -4   4 421.338 5.24018   1
  -2   4   4 22.2051 1.34722  -2
   2  -4   4 22.2051 1.34722   1
  -3   4   5 130.290 2.32668  -2
   3  -4   4 130.290 2.32668   1
  -4   4   5 8.64934 1.34501  -2
   4  -4   4 8.64934 1.34501   1
  -5   4   6 5.55574 0.94095  -2
   5  -4   4 5.55574 0.94095   1
  -6   4   7 0.25635 2.16546  -2
   6  -4   4 0.25635 2.16546   1
  -7   4   7 16.0048 1.90758  -2
   7  -4   4 16.0048 1.90758   1
   6   3   0 10.4250 1.53443  -2
  -6  -3   4 10.4250 1.53443   1
  -5  -3   4 -0.7149 0.87987   1
   4   3   1 107.345 1.80914  -2
  -4  -3   4 107.345 1.80914   1
   3   3   2 130.251 3.10651  -2
  -3  -3   4 130.251 3.10651   1
   2   3   2 36.4447 0.93642  -2
  -2  -3   4 36.4447 0.93642   1
   1   3   3 1.90819 0.91040  -2
  -1  -3   4 1.90819 0.91040   1
   0  -3   4 2.33259 0.49818   1
  -1   3   4 87.2609 1.67205  -2
   1  -3   4 87.2609 1.67205   1
   2  -3   4 140.357 2.14109   1
  -3   3   5 113.320 1.58226  -2
   3  -3   4 113.320 1.58226   1
  -4   3   6 89.8482 1.71430  -2
   4  -3   4 89.8482 1.71430   1
  -5   3   6 214.769 2.98403  -2
   5  -3   4 214.769 2.98403   1
  -6   3   7 80.5410 2.47591  -2
   6  -3   4 80.5410 2.47591   1
  -7   3   7 57.3024 2.13616  -2
   7  -3   4 57.3024 2.13616   1
   6   2   0 4.50735 1.39922  -2
  -6  -2   4 4.50735 1.39922   1
   5   2   1 35.6773 1.76221  -2
  -5  -2   4 35.6773 1.76221   1
   4   2   1 244.938 3.06435  -2
  -4  -2   4 244.938 3.06435   1
   3   2   2 153.797 2.09068  -2
  -3  -2   4 153.797 2.09068   1
   2   2   2 158.654 6.47900  -2
  -2  -2   4 158.654 6.47900   1
   1   2   3 5.88235 0.60321  -2
  -1  -2   4 5.88235 0.60321   1
   0  -2   4 1115.02 10.9798   1
  -1   2   4 1009.91 11.2938  -2
   1  -2   4 1009.91 11.2938   1
  -2   2   5 198.253 4.76183  -2
   2  -2   4 198.253 4.76183   1
  -3   2   5 32.3738 1.00639  -2
   3  -2   4 32.3738 1.00639   1
  -4   2   6 175.487 2.38884  -2
   4  -2   4 175.487 2.38884   1
  -5   2   6 33.7826 2.34324  -2
   5  -2   4 33.7826 2.34324   1
  -6   2   7 17.9076 1.18853  -2
   6  -2   4 17.9076 1.18853   1
  -7   2   8 -1.1551 2.43287  -2
   7  -2   4 -1.1551 2.43287   1
   7   1   0 12.9717 1.69094  -2
  -7  -1   4 12.9717 1.69094   1
   6   1   0 11.6488 1.66384  -2
  -6  -1   4 11.6488 1.66384   1
   5   1   1 37.5712 1.47121  -2
  -5  -1   4 37.5712 1.47121   1
  -4  -1   4 64.8516 1.27499   1
   3   1   2 30.6852 0.88323  -2
  -3  -1   4 30.6852 0.88323   1
   2   1   3 491.756 8.19013  -2
  -2  -1   4 491.756 8.19013   1
   1   1   3 295.097 2.95345  -2
  -1  -1   4 295.097 2.95345   1
   0   1   4 36.8163 0.97799  -2
   0  -1   4 36.8163 0.97799   1
   1  -1   4 198.899 2.15794   1
  -2   1   5 616.722 5.23964  -2
   2  -1   4 616.722 5.23964   1
   3  -1   4 300.465 4.28496   1
  -4   1   6 215.201 3.42143  -2
   4  -1   4 215.201 3.42143   1
  -5   1   7 194.289 4.10334  -2
   5  -1   4 194.289 4.10334   1
  -6   1   7 8.10288 1.16007  -2
   6  -1   4 8.10288 1.16007   1
  -7   1   8 -0.1525 2.83289  -2
   7  -1   4 -0.1525 2.83289   1
   7   0   0 14.6771 1.43022  -2
  -7   0   4 14.6771 1.43022   1
   6   0   1 23.9961 4.27205  -2
  -6   0   4 23.9961 4.27205   1
   5   0   1 23.8138 1.04167  -2
  -5   0   4 23.8138 1.04167   1
   4   0   2 22.7037 0.85810  -2
  -4   0   4 22.7037 0.85810   1
   3   0   2 210.788 2.27480  -2
  -3   0   4 210.788 2.27480   1
   2   0   3 756.288 6.02438  -2
  -2   0   4 756.288 6.02438   1
  -1   0   4 8.27246 0.45222   1
   0   0   4 464.268 4.25236  -2
   0   0   4 464.268 4.25236   1
   1   0   4 1.84061 0.32696   1
  -2   0   5 74.6276 1.20729  -2
   2   0   4 74.6276 1.20729   1
  -3   0   6 19.8347 1.18129  -2
   3   0   4 19.8347 1.18129   1
  -4   0   6 8.19739 2.28536  -2
   4   0   4 8.19739 2.28536   1
  -5   0   7 8.38103 2.25893  -2
   5   0   4 8.38103 2.25893   1
   6   0   4 0.67514 1.74856   1
  -7   0   8 2.70418 2.43029  -2
   7   0   4 2.70418 2.43029   1
  -7   1   0 45.2423 1.95857  -2
  -7   1   4 45.2423 1.95857   1
   6  -1   1 36.0620 1.41599  -2
  -6   1   4 36.0620 1.41599   1
   5  -1   1 59.5384 2.09762  -2
  -5   1   4 59.5384 2.09762   1
   4  -1   2 142.547 1.50466  -2
  -4   1   4 142.547 1.50466   1
  -3   1   4 37.6801 0.70939   1
   2  -1   3 80.2593 1.12603  -2
  -2   1   4 80.2593 1.12603   1
  -1   1   4 70.8563 0.94896   1
   0  -1   4 78.4819 1.29510  -2
   0   1   4 78.4819 1.29510   1
  -1  -1   5 117.256 1.31731  -2
   1   1   4 117.256 1.31731   1
   2   1   4 52.2563 1.19322   1
  -3  -1   6 209.752 3.76028  -2
   3   1   4 209.752 3.76028   1
   4   1   4 55.3092 2.09092   1
  -5  -1   7 71.8807 2.61968  -2
   5   1   4 71.8807 2.61968   1
  -6  -1   8 8.30562 3.39290  -2
   6   1   4 8.30562 3.39290   1
  -7   2   0 4.63689 2.82278  -2
  -7   2   4 4.63689 2.82278   1
   6  -2   1 80.3369 1.83740  -2
  -6   2   4 80.3369 1.83740   1
  -5   2   4 2.35799 0.49104   1
   4  -2   2 184.032 2.32605  -2
  -4   2   4 184.032 2.32605   1
   3  -2   3 173.776 3.16259  -2
  -3   2   4 173.776 3.16259   1
   2  -2   3 7.30865 1.44600  -2
  -2   2   4 7.30865 1.44600   1
   1  -2   4 794.291 6.61447  -2
  -1   2   4 794.291 6.61447   1
   0   2   4 105.890 1.18092   1
  -1  -2   5 139.212 1.54393  -2
   1   2   4 139.212 1.54393   1
   2   2   4 0.71081 0.35001   1
  -3  -2   6 19.4563 0.83864  -2
   3   2   4 19.4563 0.83864   1
  -4  -2   7 5.81657 2.11238  -2
   4   2   4 5.81657 2.11238   1
  -5  -2   7 29.9365 2.84234  -2
   5   2   4 29.9365 2.84234   1
  -6  -2   8 17.3345 2.45318  -2
   6   2   4 17.3345 2.45318   1
  -8   3   0 31.6000 1.83668  -2
  -8   3   4 31.6000 1.83668   1
   7  -3   1 15.5169 2.18253  -2
  -7   3   4 15.5169 2.18253   1
   6  -3   1 6.38760 1.32289  -2
  -6   3   4 6.38760 1.32289   1
   5  -3   2 4.95393 1.02810  -2
  -5   3   4 4.95393 1.02810   1
   4  -3   2 4.80224 2.33081  -2
  -4   3   4 4.80224 2.33081   1
   3  -3   3 135.630 2.01956  -2
  -3   3   4 135.630 2.01956   1
  -2   3   4 0.74120 0.50096   1
   1  -3   4 104.987 1.49649  -2
  -1   3   4 104.987 1.49649   1
   0   3   4 9.17684 0.53050   1
  -1  -3   5 7.56579 0.77618  -2
   1   3   4 7.56579 0.77618   1
  -2  -3   6 38.0974 1.10589  -2
   2   3   4 38.0974 1.10589   1
   3   3   4 96.3751 2.14134   1
  -4  -3   7 29.8133 2.05060  -2
   4   3   4 29.8133 2.05060   1
   5   3   4 1.26269 1.51766   1
   7  -4   1 19.7031 1.52884  -2
  -7   4   4 19.7031 1.52884   1
  -6   4   4 1.10742 0.90321   1
   5  -4   2 3.83626 0.93392  -2
  -5   4   4 3.83626 0.93392   1
   4  -4   3 50.2681 2.20395  -2
  -4   4   4 50.2681 2.20395   1
   3  -4   3 162.903 2.46724  -2
  -3   4   4 162.903 2.46724   1
   2  -4   4 9.80845 1.26620  -2
  -2   4   4 9.80845 1.26620   1
  -1   4   4 49.7793 1.11883   1
   0  -4   5 76.4533 1.37072  -2
   0   4   4 76.4533 1.37072   1
   1   4   4 22.9588 0.83146   1
  -2  -4   6 23.7601 1.09299  -2
   2   4   4 23.7601 1.09299   1
  -3  -4   7 62.1238 4.74140  -2
   3   4   4 62.1238 4.74140   1
  -4  -4   7 87.0836 5.42328  -2
   4   4   4 87.0836 5.42328   1
  -5  -4   8 3.55072 4.35445  -2
   5   4   4 3.55072 4.35445   1
   7  -5   1 26.4709 1.82448  -2
  -7   5   4 26.4709 1.82448   1
   6  -5   2 2.41418 1.47354  -2
  -6   5   4 2.41418 1.47354   1
   5  -5   2 3.66283 1.54444  -2
  -5   5   4 3.66283 1.54444   1
   4  -5   3 5.48329 1.32086  -2
  -4   5   4 5.48329 1.32086   1
  -3   5   4 25.7235 1.26779   1
   2  -5   4 16.6226 1.06597  -2
  -2   5   4 16.6226 1.06597   1
  -1   5   4 16.5677 0.92159   1
   0  -5   5 3.81215 0.95417  -2
   0   5   4 3.81215 0.95417   1
  -1  -5   6 132.048 2.09714  -2
   1   5   4 132.048 2.09714   1
  -2  -5   6 42.8924 1.69423  -2
   2   5   4 42.8924 1.69423   1
  -3  -5   7 6.93105 1.63504  -2
   3   5   4 6.93105 1.63504   1
   4   5   4 7.39591 2.80386   1
   7  -6   1 6.58191 2.41253  -2
  -7   6   4 6.58191 2.41253   1
   6  -6   2 18.4906 1.54331  -2
  -6   6   4 18.4906 1.54331   1
   5  -6   3 96.0218 4.88727  -2
  -5   6   4 96.0218 4.88727   1
   4  -6   3 25.0685 1.48478  -2
  -4   6   4 25.0685 1.48478   1
   3  -6   4 260.775 5.03416  -2
  -3   6   4 260.775 5.03416   1
   2  -6   4 11.6885 1.48924  -2
  -2   6   4 11.6885 1.48924   1
   1  -6   5 13.0474 1.27167  -2
  -1   6   4 13.0474 1.27167   1
   0  -6   5 65.8722 1.74667  -2
   0   6   4 65.8722 1.74667   1
  -1  -6   6 52.8170 1.39468  -2
   1   6   4 52.8170 1.39468   1
   2   6   4 2.57080 1.24634   1
  -3  -6   7 10.6522 2.13871  -2
   3   6   4 10.6522 2.13871   1
   6  -7   2 5.81089 1.74074  -2
  -6   7   4 5.81089 1.74074   1
   5  -7   3 -0.6003 1.80245  -2
  -5   7   4 -0.6003 1.80245   1
   4  -7   3 25.7706 1.96727  -2
  -4   7   4 25.7706 1.96727   1
   3  -7   4 60.5784 2.05628  -2
  -3   7   4 60.5784 2.05628   1
  -2   7   4 -0.1034 0.76761   1
   1  -7   5 12.8788 1.10996  -2
  -1   7   4 12.8788 1.10996   1
   0  -7   6 0.89248 1.75166  -2
   0   7   4 0.89248 1.75166   1
  -1  -7   6 61.2195 1.68512  -2
   1   7   4 61.2195 1.68512   1
  -2  -7   7 0.19937 2.15593  -2
   2   7   4 0.19937 2.15593   1
   6  -8   2 6.02322 2.30009  -2
  -6   8   4 6.02322 2.30009   1
   5  -8   3 12.4697 1.60909  -2
  -5   8   4 12.4697 1.60909   1
   4  -8   4 42.7565 4.42479  -2
  -4   8   4 42.7565 4.42479   1
   3  -8   4 17.1480 1.72311  -2
  -3   8   4 17.1480 1.72311   1
   2  -8   5 27.4182 1.82088  -2
  -2   8   4 27.4182 1.82088   1
   1  -8   5 14.8661 1.93605  -2
  -1   8   4 14.8661 1.93605   1
   0  -8   6 14.6156 1.52512  -2
   0   8   4 14.6156 1.52512   1
  -1  -8   6 11.1554 2.70254  -2
   1   8   4 11.1554 2.70254   1
   4  -9   4 15.3029 2.16185  -2
  -4   9   4 15.3029 2.16185   1
   3  -9   4 1.33894 1.86944  -2
  -3   9   4 1.33894 1.86944   1
   2  -9   5 51.7113 2.26211  -2
  -2   9   4 51.7113 2.26211   1
   1  -9   5 16.0998 1.85856   1
  -2   9   4 18.5198 1.67370  -2
   2  -9   5 18.5198 1.67370   1
  -3   9   5 54.5822 2.73233  -2
   3  -9   5 54.5822 2.73233   1
   1   8   3 3.96326 2.57480  -2
  -1  -8   5 3.96326 2.57480   1
   0   8   3 -0.5211 2.03015  -2
   0  -8   5 -0.5211 2.03015   1
  -1   8   4 3.67238 1.84248  -2
   1  -8   5 3.67238 1.84248   1
  -2   8   4 25.6145 2.17470  -2
   2  -8   5 25.6145 2.17470   1
  -3   8   5 39.1111 2.02125  -2
   3  -8   5 39.1111 2.02125   1
  -4   8   5 2.33981 3.76815  -2
   4  -8   5 2.33981 3.76815   1
  -5   8   6 29.1905 1.80118  -2
   5  -8   5 29.1905 1.80118   1
   2   7   2 -0.8656 1.77029  -2
  -2  -7   5 -0.8656 1.77029   1
   1   7   3 13.2546 1.73847  -2
  -1  -7   5 13.2546 1.73847   1
   0   7   3 14.7255 1.89655  -2
   0  -7   5 14.7255 1.89655   1
  -1   7   4 47.2688 1.71707  -2
   1  -7   5 47.2688 1.71707   1
  -2   7   5 47.0544 3.94926  -2
   2  -7   5 47.0544 3.94926   1
  -3   7   5 9.84289 1.53261  -2
   3  -7   5 9.84289 1.53261   1
  -4   7   6 5.63929 1.88893  -2
   4  -7   5 5.63929 1.88893   1
  -5   7   6 27.5982 1.98618  -2
   5  -7   5 27.5982 1.98618   1
  -6   7   7 2.38705 2.03175  -2
   6  -7   5 2.38705 2.03175   1
   4   6   1 4.50306 2.21731  -2
  -4  -6   5 4.50306 2.21731   1
   3   6   2 44.3377 1.94082  -2
  -3  -6   5 44.3377 1.94082   1
  -2  -6   5 68.8687 2.12438   1
   1   6   3 35.4561 1.30218  -2
  -1  -6   5 35.4561 1.30218   1
   0   6   4 42.7584 1.88087  -2
   0  -6   5 42.7584 1.88087   1
  -1   6   4 20.8529 1.58267  -2
   1  -6   5 20.8529 1.58267   1
  -2   6   5 53.1325 1.99026  -2
   2  -6   5 53.1325 1.99026   1
  -3   6   5 -2.7971 1.61778  -2
   3  -6   5 -2.7971 1.61778   1
  -4   6   6 74.3772 1.97416  -2
   4  -6   5 74.3772 1.97416   1
   5  -6   5 4.58965 1.18165   1
  -6   6   7 0.66058 1.40494  -2
   6  -6   5 0.66058 1.40494   1
   7  -6   5 13.0186 1.38117   1
   4   5   2 12.2529 2.94852  -2
  -4  -5   5 12.2529 2.94852   1
   3   5   2 20.4726 1.38950  -2
  -3  -5   5 20.4726 1.38950   1
   2   5   3 565.921 6.56136  -2
  -2  -5   5 565.921 6.56136   1
   1   5   3 10.6449 1.21979  -2
  -1  -5   5 10.6449 1.21979   1
   0   5   4 21.9695 1.33638  -2
   0  -5   5 21.9695 1.33638   1
   1  -5   5 2.11308 0.71757   1
  -2   5   5 99.8599 2.01809  -2
   2  -5   5 99.8599 2.01809   1
  -3   5   6 11.5031 2.81963  -2
   3  -5   5 11.5031 2.81963   1
  -4   5   6 6.98317 1.28794  -2
   4  -5   5 6.98317 1.28794   1
  -5   5   7 29.9900 1.69099  -2
   5  -5   5 29.9900 1.69099   1
  -6   5   7 52.7284 2.27286  -2
   6  -5   5 52.7284 2.27286   1
  -7   5   8 16.6020 2.47307  -2
   7  -5   5 16.6020 2.47307   1
   5   4   1 7.37424 1.76935  -2
  -5  -4   5 7.37424 1.76935   1
   4   4   2 3.76693 1.59242  -2
  -4  -4   5 3.76693 1.59242   1
   3   4   2 60.1219 1.82661  -2
  -3  -4   5 60.1219 1.82661   1
   2   4   3 56.8317 1.15571  -2
  -2  -4   5 56.8317 1.15571   1
  -1  -4   5 57.3761 1.22821   1
   0   4   4 17.3799 0.91576  -2
   0  -4   5 17.3799 0.91576   1
  -1   4   5 22.8830 2.46671  -2
   1  -4   5 22.8830 2.46671   1
  -2   4   5 190.576 2.96471  -2
   2  -4   5 190.576 2.96471   1
  -3   4   6 69.5542 1.73959  -2
   3  -4   5 69.5542 1.73959   1
  -4   4   6 58.8317 1.76402  -2
   4  -4   5 58.8317 1.76402   1
  -5   4   7 106.324 1.91986  -2
   5  -4   5 106.324 1.91986   1
  -6   4   8 39.9555 2.53748  -2
   6  -4   5 39.9555 2.53748   1
  -7   4   8 32.4397 2.11966  -2
   7  -4   5 32.4397 2.11966   1
   6   3   1 6.93437 1.55745  -2
  -6  -3   5 6.93437 1.55745   1
   5   3   1 -0.3309 4.02914  -2
  -5  -3   5 -0.3309 4.02914   1
   4   3   2 5.31553 0.88957  -2
  -4  -3   5 5.31553 0.88957   1
   3   3   3 384.855 5.56781  -2
  -3  -3   5 384.855 5.56781   1
   2   3   3 25.3926 0.93487  -2
  -2  -3   5 25.3926 0.93487   1
   1   3   4 30.5352 1.12011  -2
  -1  -3   5 30.5352 1.12011   1
   0   3   4 4.48645 1.88380  -2
   0  -3   5 4.48645 1.88380   1
  -1   3   5 39.1384 1.24259  -2
   1  -3   5 39.1384 1.24259   1
   2  -3   5 3.53286 0.64236   1
  -3   3   6 7.32377 0.78424  -2
   3  -3   5 7.32377 0.78424   1
  -4   3   7 182.983 2.58537  -2
   4  -3   5 182.983 2.58537   1
  -5   3   7 69.4917 1.59507  -2
   5  -3   5 69.4917 1.59507   1
  -6   3   8 66.5575 2.28957  -2
   6  -3   5 66.5575 2.28957   1
  -7   3   8 9.25841 2.04751  -2
   7  -3   5 9.25841 2.04751   1
   6   2   1 3.46207 1.40695  -2
  -6  -2   5 3.46207 1.40695   1
   5   2   2 35.8425 1.79289  -2
  -5  -2   5 35.8425 1.79289   1
   4   2   2 68.3524 1.58314  -2
  -4  -2   5 68.3524 1.58314   1
   3   2   3 5.25715 0.63660  -2
  -3  -2   5 5.25715 0.63660   1
   2   2   3 4.09692 3.02083  -2
  -2  -2   5 4.09692 3.02083   1
   1   2   4 516.905 5.40637  -2
  -1  -2   5 516.905 5.40637   1
   0  -2   5 3.02338 0.47494   1
  -1   2   5 8.73961 0.86251  -2
   1  -2   5 8.73961 0.86251   1
  -2   2   6 16.3816 1.35746  -2
   2  -2   5 16.3816 1.35746   1
  -3   2   6 11.3675 0.87488  -2
   3  -2   5 11.3675 0.87488   1
  -4   2   7 26.5217 1.00685  -2
   4  -2   5 26.5217 1.00685   1
  -5   2   7 3.33789 2.05282  -2
   5  -2   5 3.33789 2.05282   1
  -6   2   8 39.0052 1.41887  -2
   6  -2   5 39.0052 1.41887   1
  -7   2   9 22.6727 6.47558  -2
   7  -2   5 22.6727 6.47558   1
   7   1   1 4.96730 1.66853  -2
  -7  -1   5 4.96730 1.66853   1
   6   1   1 -0.2224 1.67408  -2
  -6  -1   5 -0.2224 1.67408   1
   5   1   2 0.66748 0.94045  -2
  -5  -1   5 0.66748 0.94045   1
  -4  -1   5 146.494 2.06448   1
   3   1   3 127.238 1.45046  -2
  -3  -1   5 127.238 1.45046   1
   2   1   4 130.764 2.29459  -2
  -2  -1   5 130.764 2.29459   1
   1   1   4 180.437 2.04025  -2
  -1  -1   5 180.437 2.04025   1
   0   1   5 388.565 4.01533  -2
   0  -1   5 388.565 4.01533   1
  -1   1   5 544.670 6.25267  -2
   1  -1   5 544.670 6.25267   1
  -2   1   6 158.494 1.74678  -2
   2  -1   5 158.494 1.74678   1
   3  -1   5 153.001 2.05196   1
  -4   1   7 3.14259 0.89255  -2
   4  -1   5 3.14259 0.89255   1
  -5   1   8 43.6386 2.05711  -2
   5  -1   5 43.6386 2.05711   1
  -6   1   8 17.9748 1.25705  -2
   6  -1   5 17.9748 1.25705   1
  -7   1   9 19.4518 3.04846  -2
   7  -1   5 19.4518 3.04846   1
   7   0   1 25.8232 1.60017  -2
  -7   0   5 25.8232 1.60017   1
   6   0   2 35.7287 3.21345  -2
  -6   0   5 35.7287 3.21345   1
   5   0   2 12.7942 1.02071  -2
  -5   0   5 12.7942 1.02071   1
   4   0   3 21.7626 0.93694  -2
  -4   0   5 21.7626 0.93694   1
   3   0   3 460.552 3.90180  -2
  -3   0   5 460.552 3.90180   1
   2   0   4 265.644 2.37908  -2
  -2   0   5 265.644 2.37908   1
  -1   0   5 40.0035 0.69197   1
   0   0   5 154.231 1.67820  -2
   0   0   5 154.231 1.67820   1
   1   0   5 139.219 1.51227   1
  -2   0   6 277.250 3.06331  -2
   2   0   5 277.250 3.06331   1
  -3   0   7 10.7363 0.88712  -2
   3   0   5 10.7363 0.88712   1
  -4   0   7 39.2610 2.62458  -2
   4   0   5 39.2610 2.62458   1
  -5   0   8 3.68750 2.15335  -2
   5   0   5 3.68750 2.15335   1
   6   0   5 9.71781 2.09063   1
  -7   0   9 2.46182 2.47969  -2
   7   0   5 2.46182 2.47969   1
   7  -1   1 17.1597 1.70248  -2
  -7   1   5 17.1597 1.70248   1
   6  -1   2 21.0356 1.40888  -2
  -6   1   5 21.0356 1.40888   1
   5  -1   2 97.3843 3.11065  -2
  -5   1   5 97.3843 3.11065   1
   4  -1   3 44.6434 0.83064  -2
  -4   1   5 44.6434 0.83064   1
  -3   1   5 432.542 3.67528   1
   2  -1   4 258.670 2.53809  -2
  -2   1   5 258.670 2.53809   1
  -1   1   5 7.18802 0.43930   1
   0  -1   5 129.195 1.41560  -2
   0   1   5 129.195 1.41560   1
  -1  -1   6 35.3785 0.68197  -2
   1   1   5 35.3785 0.68197   1
   2   1   5 28.8499 0.69160   1
  -3  -1   7 91.5697 1.78978  -2
   3   1   5 91.5697 1.78978   1
   4   1   5 64.9478 2.26990   1
  -5  -1   8 11.4590 1.87624  -2
   5   1   5 11.4590 1.87624   1
  -6  -1   9 19.0466 3.71965  -2
   6   1   5 19.0466 3.71965   1
   7  -2   1 14.8482 3.01966  -2
  -7   2   5 14.8482 3.01966   1
   6  -2   2 7.40990 0.88805  -2
  -6   2   5 7.40990 0.88805   1
  -5   2   5 16.4100 0.77343   1
   4  -2   3 117.133 1.79219  -2
  -4   2   5 117.133 1.79219   1
   3  -2   4 9.17065 1.06539  -2
  -3   2   5 9.17065 1.06539   1
   2  -2   4 248.578 5.85094  -2
  -2   2   5 248.578 5.85094   1
   1  -2   5 44.4878 0.86216  -2
  -1   2   5 44.4878 0.86216   1
   0   2   5 144.118 1.50536   1
  -1  -2   6 8.07320 0.53086  -2
   1   2   5 8.07320 0.53086   1
   2   2   5 7.20330 0.57258   1
  -3  -2   7 8.10649 0.64951  -2
   3   2   5 8.10649 0.64951   1
  -4  -2   8 70.1617 3.69627  -2
   4   2   5 70.1617 3.69627   1
  -5  -2   8 44.5446 3.05650  -2
   5   2   5 44.5446 3.05650   1
  -6  -2   9 15.2637 3.14023  -2
   6   2   5 15.2637 3.14023   1
   7  -3   2 25.7602 1.86955  -2
  -7   3   5 25.7602 1.86955   1
   6  -3   2 11.7449 1.44022  -2
  -6   3   5 11.7449 1.44022   1
   5  -3   3 63.3326 1.51664  -2
  -5   3   5 63.3326 1.51664   1
   4  -3   3 9.64678 2.50866  -2
  -4   3   5 9.64678 2.50866   1
   3  -3   4 27.1229 1.01335  -2
  -3   3   5 27.1229 1.01335   1
  -2   3   5 197.595 2.18924   1
   1  -3   5 9.40150 0.73621  -2
  -1   3   5 9.40150 0.73621   1
   0  -3   6 28.0768 1.88804  -2
   0   3   5 28.0768 1.88804   1
  -1  -3   6 77.7616 1.43540  -2
   1   3   5 77.7616 1.43540   1
  -2  -3   7 61.2026 1.41035  -2
   2   3   5 61.2026 1.41035   1
   3   3   5 26.4237 1.26499   1
  -4  -3   8 67.0067 2.63466  -2
   4   3   5 67.0067 2.63466   1
   5   3   5 -0.2399 1.52031   1
   7  -4   2 17.7704 1.59100  -2
  -7   4   5 17.7704 1.59100   1
  -6   4   5 8.44841 0.99117   1
   5  -4   3 30.2873 1.26557  -2
  -5   4   5 30.2873 1.26557   1
   4  -4   4 6.52338 1.83350  -2
  -4   4   5 6.52338 1.83350   1
   3  -4   4 156.533 2.48081  -2
  -3   4   5 156.533 2.48081   1
   2  -4   5 175.435 2.86046  -2
  -2   4   5 175.435 2.86046   1
  -1   4   5 0.94141 0.46578   1
   0  -4   6 96.5684 1.40887  -2
   0   4   5 96.5684 1.40887   1
   1   4   5 9.13416 0.70532   1
  -2  -4   7 53.4656 1.39293  -2
   2   4   5 53.4656 1.39293   1
  -3  -4   8 14.2783 4.17136  -2
   3   4   5 14.2783 4.17136   1
  -4  -4   8 44.5055 4.66067  -2
   4   4   5 44.5055 4.66067   1
  -5  -4   9 3.60420 4.81128  -2
   5   4   5 3.60420 4.81128   1
   7  -5   2 41.8645 2.03628  -2
  -7   5   5 41.8645 2.03628   1
   6  -5   3 21.3367 1.69294  -2
  -6   5   5 21.3367 1.69294   1
   5  -5   3 23.5533 1.69718  -2
  -5   5   5 23.5533 1.69718   1
   4  -5   4 29.4811 1.58665  -2
  -4   5   5 29.4811 1.58665   1
  -3   5   5 5.49301 0.91176   1
   2  -5   5 269.161 3.84484  -2
  -2   5   5 269.161 3.84484   1
  -1   5   5 61.6773 1.22955   1
   0  -5   6 120.495 1.74342  -2
   0   5   5 120.495 1.74342   1
  -1  -5   7 65.3384 1.55107  -2
   1   5   5 65.3384 1.55107   1
  -2  -5   7 43.9973 1.67838  -2
   2   5   5 43.9973 1.67838   1
  -3  -5   8 -0.7818 1.56680  -2
   3   5   5 -0.7818 1.56680   1
   4   5   5 -0.6298 2.58856   1
   7  -6   2 9.87474 2.45712  -2
  -7   6   5 9.87474 2.45712   1
   6  -6   3 24.6609 1.64291  -2
  -6   6   5 24.6609 1.64291   1
  -5   6   5 30.2703 2.00461   1
   4  -6   4 26.0829 1.52522  -2
  -4   6   5 26.0829 1.52522   1
   3  -6   5 3.16299 2.06376  -2
  -3   6   5 3.16299 2.06376   1
   2  -6   5 21.3487 1.42093  -2
  -2   6   5 21.3487 1.42093   1
   1  -6   6 104.641 2.04690  -2
  -1   6   5 104.641 2.04690   1
   0  -6   6 35.2195 1.56208  -2
   0   6   5 35.2195 1.56208   1
  -1  -6   7 46.8099 1.33401  -2
   1   6   5 46.8099 1.33401   1
  -2  -6   8 20.6529 4.54549  -2
   2   6   5 20.6529 4.54549   1
  -3  -6   8 27.8685 1.98610  -2
   3   6   5 27.8685 1.98610   1
   6  -7   3 11.6093 1.78445  -2
  -6   7   5 11.6093 1.78445   1
   5  -7   4 66.0983 2.46163  -2
  -5   7   5 66.0983 2.46163   1
   4  -7   4 106.744 2.80364  -2
  -4   7   5 106.744 2.80364   1
   3  -7   5 51.5639 1.97066  -2
  -3   7   5 51.5639 1.97066   1
  -2   7   5 50.1903 1.52957   1
   1  -7   6 186.121 2.46622  -2
  -1   7   5 186.121 2.46622   1
   0  -7   7 6.30478 2.04206  -2
   0   7   5 6.30478 2.04206   1
  -1  -7   7 2.56553 1.54126  -2
   1   7   5 2.56553 1.54126   1
  -2  -7   8 -2.0045 2.13910  -2
   2   7   5 -2.0045 2.13910   1
   6  -8   3 -2.2632 4.05981  -2
  -6   8   5 -2.2632 4.05981   1
   5  -8   4 17.4089 1.72463  -2
  -5   8   5 17.4089 1.72463   1
   4  -8   5 7.45064 4.08760  -2
  -4   8   5 7.45064 4.08760   1
   3  -8   5 33.0414 1.93887  -2
  -3   8   5 33.0414 1.93887   1
   2  -8   6 21.0011 1.78191  -2
  -2   8   5 21.0011 1.78191   1
   1  -8   6 24.4163 2.04650  -2
  -1   8   5 24.4163 2.04650   1
   0  -8   7 94.4226 2.20951  -2
   0   8   5 94.4226 2.20951   1
   3  -9   5 39.4523 2.16982  -2
  -3   9   5 39.4523 2.16982   1
   2  -9   6 5.41598 1.70724  -2
  -2   9   5 5.41598 1.70724   1
  -2   9   5 8.30424 1.57672  -2
   2  -9   6 8.30424 1.57672   1
   3  -9   6 0.23012 1.17412   1
   1   8   4 39.7720 3.31681  -2
  -1  -8   6 39.7720 3.31681   1
   0   8   4 14.8316 2.20584  -2
   0  -8   6 14.8316 2.20584   1
  -1   8   5 110.780 2.94075  -2
   1  -8   6 110.780 2.94075   1
  -2   8   5 85.2139 2.75395  -2
   2  -8   6 85.2139 2.75395   1
  -3   8   6 28.0445 1.77019  -2
   3  -8   6 28.0445 1.77019   1
  -4   8   6 0.27011 2.67592  -2
   4  -8   6 0.27011 2.67592   1
  -5   8   7 57.4230 2.14367  -2
   5  -8   6 57.4230 2.14367   1
   2   7   3 49.3174 2.31101  -2
  -2  -7   6 49.3174 2.31101   1
   1   7   4 207.753 3.85458  -2
  -1  -7   6 207.753 3.85458   1
   0   7   4 2.33780 1.85788  -2
   0  -7   6 2.33780 1.85788   1
  -1   7   5 57.6304 1.87258  -2
   1  -7   6 57.6304 1.87258   1
  -2   7   6 7.09177 2.61860  -2
   2  -7   6 7.09177 2.61860   1
  -3   7   6 22.9627 1.68343  -2
   3  -7   6 22.9627 1.68343   1
  -4   7   7 14.7739 2.00601  -2
   4  -7   6 14.7739 2.00601   1
  -5   7   7 5.46936 1.81038  -2
   5  -7   6 5.46936 1.81038   1
  -6   7   8 2.66052 2.15535  -2
   6  -7   6 2.66052 2.15535   1
   3   6   3 28.4844 1.43368  -2
  -3  -6   6 28.4844 1.43368   1
  -2  -6   6 2.62489 0.87326   1
   1   6   4 62.4647 1.59289  -2
  -1  -6   6 62.4647 1.59289   1
   0   6   5 137.286 3.51531  -2
   0  -6   6 137.286 3.51531   1
  -1   6   5 130.997 2.69662  -2
   1  -6   6 130.997 2.69662   1
  -2   6   6 5.43234 1.56196  -2
   2  -6   6 5.43234 1.56196   1
  -3   6   6 1.01625 1.67737  -2
   3  -6   6 1.01625 1.67737   1
  -4   6   7 5.12739 1.22655  -2
   4  -6   6 5.12739 1.22655   1
   5  -6   6 -0.9795 1.05525   1
  -6   6   8 0.84765 1.45445  -2
   6  -6   6 0.84765 1.45445   1
   4   5   3 3.46704 2.52738  -2
  -4  -5   6 3.46704 2.52738   1
   3   5   3 25.7251 1.48585  -2
  -3  -5   6 25.7251 1.48585   1
   2   5   4 114.217 2.34266  -2
  -2  -5   6 114.217 2.34266   1
   1   5   4 40.1276 1.49074  -2
  -1  -5   6 40.1276 1.49074   1
   0   5   5 70.7319 1.83478  -2
   0  -5   6 70.7319 1.83478   1
  -1   5   5 31.7164 3.10667  -2
   1  -5   6 31.7164 3.10667   1
  -2   5   6 8.92816 1.05747  -2
   2  -5   6 8.92816 1.05747   1
  -3   5   7 2.34094 2.91080  -2
   3  -5   6 2.34094 2.91080   1
  -4   5   7 19.7825 1.47279  -2
   4  -5   6 19.7825 1.47279   1
  -5   5   8 16.5324 1.88801  -2
   5  -5   6 16.5324 1.88801   1
  -6   5   8 72.5381 2.45648  -2
   6  -5   6 72.5381 2.45648   1
  -7   5   9 0.65918 2.82512  -2
   7  -5   6 0.65918 2.82512   1
   5   4   2 5.83624 1.82206  -2
  -5  -4   6 5.83624 1.82206   1
   4   4   3 3.66982 1.61648  -2
  -4  -4   6 3.66982 1.61648   1
   3   4   3 320.442 4.78321  -2
  -3  -4   6 320.442 4.78321   1
   2   4   4 31.6360 0.99277  -2
  -2  -4   6 31.6360 0.99277   1
  -1  -4   6 22.2798 0.93197   1
   0   4   5 423.267 4.72867  -2
   0  -4   6 423.267 4.72867   1
  -1   4   6 65.5123 1.81013  -2
   1  -4   6 65.5123 1.81013   1
  -2   4   6 178.456 2.87597  -2
   2  -4   6 178.456 2.87597   1
  -3   4   7 121.595 2.30403  -2
   3  -4   6 121.595 2.30403   1
  -4   4   7 4.73560 1.37713  -2
   4  -4   6 4.73560 1.37713   1
  -5   4   8 4.92354 1.20591  -2
   5  -4   6 4.92354 1.20591   1
   6  -4   6 44.9276 4.84810   1
  -7   4   9 11.7192 2.30323  -2
   7  -4   6 11.7192 2.30323   1
   6   3   2 20.4609 1.70481  -2
  -6  -3   6 20.4609 1.70481   1
  -5  -3   6 0.80154 1.03847   1
   4   3   3 20.0256 1.07102  -2
  -4  -3   6 20.0256 1.07102   1
   3   3   4 245.978 4.32488  -2
  -3  -3   6 245.978 4.32488   1
   2   3   4 191.316 2.31661  -2
  -2  -3   6 191.316 2.31661   1
   1   3   5 26.3170 1.09980  -2
  -1  -3   6 26.3170 1.09980   1
   0   3   5 114.677 1.85401  -2
   0  -3   6 114.677 1.85401   1
  -1   3   6 358.374 4.56404  -2
   1  -3   6 358.374 4.56404   1
   2  -3   6 122.039 2.01595   1
  -3   3   7 146.204 2.27954  -2
   3  -3   6 146.204 2.27954   1
  -4   3   8 11.7415 1.16186  -2
   4  -3   6 11.7415 1.16186   1
  -5   3   8 4.10172 0.89638  -2
   5  -3   6 4.10172 0.89638   1
  -6   3   9 34.2241 2.61832  -2
   6  -3   6 34.2241 2.61832   1
  -7   3   9 4.20631 1.98205  -2
   7  -3   6 4.20631 1.98205   1
   6   2   2 25.8875 1.68607  -2
  -6  -2   6 25.8875 1.68607   1
   5   2   3 0.01562 1.63316  -2
  -5  -2   6 0.01562 1.63316   1
   4   2   3 29.4525 1.32114  -2
  -4  -2   6 29.4525 1.32114   1
   3   2   4 61.5424 1.17575  -2
  -3  -2   6 61.5424 1.17575   1
  -2  -2   6 30.9957 0.83797   1
   1   2   5 18.1481 0.75605  -2
  -1  -2   6 18.1481 0.75605   1
   0  -2   6 100.887 1.48244   1
  -1   2   6 33.0051 0.95049  -2
   1  -2   6 33.0051 0.95049   1
  -2   2   7 107.563 1.91451  -2
   2  -2   6 107.563 1.91451   1
  -3   2   7 135.522 1.96505  -2
   3  -2   6 135.522 1.96505   1
  -4   2   8 43.5524 1.17036  -2
   4  -2   6 43.5524 1.17036   1
  -5   2   8 3.89959 2.24269  -2
   5  -2   6 3.89959 2.24269   1
  -6   2   9 12.1478 1.35068  -2
   6  -2   6 12.1478 1.35068   1
   7  -2   6 -0.5897 1.07574   1
   7   1   2 0.97830 1.68844  -2
  -7  -1   6 0.97830 1.68844   1
   6   1   2 18.5515 1.86082  -2
  -6  -1   6 18.5515 1.86082   1
   5   1   3 125.742 2.07548  -2
  -5  -1   6 125.742 2.07548   1
  -4  -1   6 86.5525 1.54901   1
   3   1   4 45.1160 0.86684  -2
  -3  -1   6 45.1160 0.86684   1
   2   1   5 204.794 2.66957  -2
  -2  -1   6 204.794 2.66957   1
   1   1   5 22.6980 0.95586  -2
  -1  -1   6 22.6980 0.95586   1
   0   1   6 255.390 2.86458  -2
   0  -1   6 255.390 2.86458   1
  -1   1   6 13.5565 0.91806  -2
   1  -1   6 13.5565 0.91806   1
  -2   1   7 20.6264 0.69456  -2
   2  -1   6 20.6264 0.69456   1
   3  -1   6 2.09550 0.57581   1
  -4   1   8 86.6685 1.93350  -2
   4  -1   6 86.6685 1.93350   1
  -5   1   9 45.7610 2.24957  -2
   5  -1   6 45.7610 2.24957   1
  -6   1   9 1.22104 1.14752  -2
   6  -1   6 1.22104 1.14752   1
  -7   1  10 15.3885 3.28211  -2
   7  -1   6 15.3885 3.28211   1
   7   0   2 -1.6227 1.30094  -2
  -7   0   6 -1.6227 1.30094   1
   6   0   3 10.3089 3.73261  -2
  -6   0   6 10.3089 3.73261   1
   5   0   3 38.1257 1.14829  -2
  -5   0   6 38.1257 1.14829   1
   4   0   4 5.75695 0.79543  -2
  -4   0   6 5.75695 0.79543   1
   3   0   4 57.8882 1.02775  -2
  -3   0   6 57.8882 1.02775   1
   2   0   5 607.742 4.98443  -2
  -2   0   6 607.742 4.98443   1
   1   0   5 337.086 7.23556  -2
  -1   0   6 337.086 7.23556   1
   0   0   6 15.5750 0.63339  -2
   0   0   6 15.5750 0.63339   1
   1   0   6 584.780 5.06810   1
  -2   0   7 6.05781 0.66080  -2
   2   0   6 6.05781 0.66080   1
  -3   0   8 34.2362 1.17790  -2
   3   0   6 34.2362 1.17790   1
  -4   0   8 10.2089 1.32872  -2
   4   0   6 10.2089 1.32872   1
  -5   0   9 29.2590 1.47198  -2
   5   0   6 29.2590 1.47198   1
   6   0   6 10.2339 2.20307   1
   7  -1   2 6.40648 1.72281  -2
  -7   1   6 6.40648 1.72281   1
   6  -1   3 88.6989 2.16807  -2
  -6   1   6 88.6989 2.16807   1
   5  -1   3 9.75567 1.29372  -2
  -5   1   6 9.75567 1.29372   1
   4  -1   4 122.735 1.43504  -2
  -4   1   6 122.735 1.43504   1
  -3   1   6 3.30006 0.41272   1
   2  -1   5 115.212 1.45269  -2
  -2   1   6 115.212 1.45269   1
   1  -1   6 71.6748 3.53916  -2
  -1   1   6 71.6748 3.53916   1
   0  -1   6 306.670 3.07262  -2
   0   1   6 306.670 3.07262   1
  -1  -1   7 254.691 2.36057  -2
   1   1   6 254.691 2.36057   1
  -2  -1   7 25.0221 1.48865  -2
   2   1   6 25.0221 1.48865   1
  -3  -1   8 17.4784 0.69124  -2
   3   1   6 17.4784 0.69124   1
   4   1   6 188.305 3.86158   1
  -5  -1   9 6.19052 1.87164  -2
   5   1   6 6.19052 1.87164   1
  -6  -1  10 0.75865 3.44086  -2
   6   1   6 0.75865 3.44086   1
  -7   2   6 1.03731 1.16499   1
   6  -2   3 10.2062 0.94290  -2
  -6   2   6 10.2062 0.94290   1
  -5   2   6 146.747 1.87723   1
   4  -2   4 60.3780 1.22071  -2
  -4   2   6 60.3780 1.22071   1
   3  -2   5 19.9713 1.76356  -2
  -3   2   6 19.9713 1.76356   1
   2  -2   5 53.7598 1.70229  -2
  -2   2   6 53.7598 1.70229   1
   1  -2   6 183.333 1.89285  -2
  -1   2   6 183.333 1.89285   1
   0   2   6 10.3484 0.59727   1
  -1  -2   7 319.135 2.85249  -2
   1   2   6 319.135 2.85249   1
  -2  -2   8 64.3250 3.03581  -2
   2   2   6 64.3250 3.03581   1
  -3  -2   8 10.8812 0.74887  -2
   3   2   6 10.8812 0.74887   1
  -4  -2   9 7.63584 0.99547  -2
   4   2   6 7.63584 0.99547   1
  -5  -2   9 9.66289 3.50399  -2
   5   2   6 9.66289 3.50399   1
  -6  -2  10 5.69052 4.57791  -2
   6   2   6 5.69052 4.57791   1
   7  -3   3 11.5521 1.45643  -2
  -7   3   6 11.5521 1.45643   1
   6  -3   3 9.72796 1.34813  -2
  -6   3   6 9.72796 1.34813   1
   5  -3   4 80.6700 1.72051  -2
  -5   3   6 80.6700 1.72051   1
   4  -3   4 38.8018 2.92822  -2
  -4   3   6 38.8018 2.92822   1
   3  -3   5 29.8666 0.94124  -2
  -3   3   6 29.8666 0.94124   1
  -2   3   6 6.75789 0.62287   1
   1  -3   6 811.762 6.89278  -2
  -1   3   6 811.762 6.89278   1
   0  -3   7 7.53018 1.01568  -2
   0   3   6 7.53018 1.01568   1
  -1  -3   7 15.6234 0.86056  -2
   1   3   6 15.6234 0.86056   1
  -2  -3   8 133.567 2.02941  -2
   2   3   6 133.567 2.02941   1
   3   3   6 23.2658 1.36810   1
  -4  -3   9 7.08130 3.08807  -2
   4   3   6 7.08130 3.08807   1
   5   3   6 2.29450 2.73758   1
   7  -4   3 33.2414 1.65385  -2
  -7   4   6 33.2414 1.65385   1
  -6   4   6 3.75139 0.77613   1
   5  -4   4 19.9592 1.04119  -2
  -5   4   6 19.9592 1.04119   1
   4  -4   5 271.127 7.06378  -2
  -4   4   6 271.127 7.06378   1
   3  -4   5 66.7858 1.71942  -2
  -3   4   6 66.7858 1.71942   1
   2  -4   6 42.2486 1.19876  -2
  -2   4   6 42.2486 1.19876   1
   1  -4   6 305.029 7.21769  -2
  -1   4   6 305.029 7.21769   1
   0  -4   7 95.5385 1.43666  -2
   0   4   6 95.5385 1.43666   1
   1   4   6 14.9703 0.82459   1
  -2  -4   8 3.17435 0.96117  -2
   2   4   6 3.17435 0.96117   1
  -3  -4   9 3.66658 1.58290  -2
   3   4   6 3.66658 1.58290   1
  -4  -4   9 22.5709 4.45391  -2
   4   4   6 22.5709 4.45391   1
   5   4   6 21.2391 3.65851   1
   7  -5   3 28.1592 1.90739  -2
  -7   5   6 28.1592 1.90739   1
   6  -5   4 46.7398 1.95464  -2
  -6   5   6 46.7398 1.95464   1
   5  -5   4 1.13594 1.60311  -2
  -5   5   6 1.13594 1.60311   1
   4  -5   5 26.7114 1.66356  -2
  -4   5   6 26.7114 1.66356   1
   3  -5   5 71.7178 3.86136  -2
  -3   5   6 71.7178 3.86136   1
   2  -5   6 45.0350 1.10194  -2
  -2   5   6 45.0350 1.10194   1
  -1   5   6 25.2504 0.95299   1
   0  -5   7 113.056 1.70531  -2
   0   5   6 113.056 1.70531   1
  -1  -5   8 2.92481 1.15347  -2
   1   5   6 2.92481 1.15347   1
  -2  -5   8 87.9973 2.84829  -2
   2   5   6 87.9973 2.84829   1
  -3  -5   9 -0.8846 1.59445  -2
   3   5   6 -0.8846 1.59445   1
   4   5   6 2.26536 2.67792   1
   7  -6   3 25.4438 2.77550  -2
  -7   6   6 25.4438 2.77550   1
   6  -6   4 0.29861 1.45712  -2
  -6   6   6 0.29861 1.45712   1
  -5   6   6 14.3177 1.71881   1
   4  -6   5 56.1184 1.91214  -2
  -4   6   6 56.1184 1.91214   1
   3  -6   6 24.0109 1.87443  -2
  -3   6   6 24.0109 1.87443   1
   2  -6   6 21.0691 1.43394  -2
  -2   6   6 21.0691 1.43394   1
   1  -6   7 56.7249 1.47559  -2
  -1   6   6 56.7249 1.47559   1
   0  -6   7 6.73840 1.59559  -2
   0   6   6 6.73840 1.59559   1
  -1  -6   8 43.7566 1.32800  -2
   1   6   6 43.7566 1.32800   1
   2   6   6 33.1743 1.98079   1
  -3  -6   9 1.99928 1.71168  -2
   3   6   6 1.99928 1.71168   1
   6  -7   4 19.4738 1.90036  -2
  -6   7   6 19.4738 1.90036   1
   5  -7   5 10.8215 2.01552  -2
  -5   7   6 10.8215 2.01552   1
   4  -7   5 21.5305 2.04672  -2
  -4   7   6 21.5305 2.04672   1
   3  -7   6 13.8171 1.35254  -2
  -3   7   6 13.8171 1.35254   1
  -2   7   6 42.1477 1.47929   1
   1  -7   7 1.63619 0.87529  -2
  -1   7   6 1.63619 0.87529   1
   0  -7   8 65.0470 2.72700  -2
   0   7   6 65.0470 2.72700   1
  -1  -7   8 13.0871 1.67341  -2
   1   7   6 13.0871 1.67341   1
  -2  -7   9 6.21071 2.23514  -2
   2   7   6 6.21071 2.23514   1
   5  -8   5 8.66071 1.61792  -2
  -5   8   6 8.66071 1.61792   1
   4  -8   6 -7.5937 3.60619  -2
  -4   8   6 -7.5937 3.60619   1
   3  -8   6 21.4335 1.50848  -2
  -3   8   6 21.4335 1.50848   1
   2  -8   7 90.9167 2.37104  -2
  -2   8   6 90.9167 2.37104   1
   1  -8   7 44.5457 1.93162  -2
  -1   8   6 44.5457 1.93162   1
   0  -8   8 16.0471 1.53118  -2
   0   8   6 16.0471 1.53118   1
  -1  -8   7 2.25002 1.18198   1
   0   8   5 57.0076 2.86477  -2
   0  -8   7 57.0076 2.86477   1
  -1   8   6 28.9859 2.16944  -2
   1  -8   7 28.9859 2.16944   1
  -2   8   6 61.6595 2.58024  -2
   2  -8   7 61.6595 2.58024   1
  -3   8   7 3.98663 1.44496  -2
   3  -8   7 3.98663 1.44496   1
  -4   8   7 5.17363 2.77395  -2
   4  -8   7 5.17363 2.77395   1
  -5   8   8 9.24146 1.59661  -2
   5  -8   7 9.24146 1.59661   1
   2   7   4 7.63359 1.96980  -2
  -2  -7   7 7.63359 1.96980   1
   1   7   5 1.41013 1.82846  -2
  -1  -7   7 1.41013 1.82846   1
   0   7   5 36.3001 2.14645  -2
   0  -7   7 36.3001 2.14645   1
  -1   7   6 0.95708 1.05758  -2
   1  -7   7 0.95708 1.05758   1
  -2   7   7 7.03930 3.69654  -2
   2  -7   7 7.03930 3.69654   1
  -3   7   7 -1.0351 1.31288  -2
   3  -7   7 -1.0351 1.31288   1
  -4   7   8 14.1332 1.99897  -2
   4  -7   7 14.1332 1.99897   1
  -5   7   8 13.5917 1.91361  -2
   5  -7   7 13.5917 1.91361   1
  -6   7   9 66.8290 2.96309  -2
   6  -7   7 66.8290 2.96309   1
   3   6   4 10.9531 1.24759  -2
  -3  -6   7 10.9531 1.24759   1
   2   6   5 95.4398 4.58609  -2
  -2  -6   7 95.4398 4.58609   1
   1   6   5 60.6635 1.61311  -2
  -1  -6   7 60.6635 1.61311   1
   0   6   6 6.33967 2.19884  -2
   0  -6   7 6.33967 2.19884   1
  -1   6   6 152.491 2.96931  -2
   1  -6   7 152.491 2.96931   1
  -2   6   7 33.9199 1.83353  -2
   2  -6   7 33.9199 1.83353   1
  -3   6   7 23.3796 1.87822  -2
   3  -6   7 23.3796 1.87822   1
  -4   6   8 82.6208 2.07339  -2
   4  -6   7 82.6208 2.07339   1
   5  -6   7 22.2082 1.67397   1
  -6   6   9 10.6148 1.60871  -2
   6  -6   7 10.6148 1.60871   1
   4   5   4 37.2864 5.46679  -2
  -4  -5   7 37.2864 5.46679   1
   3   5   4 4.56747 1.39688  -2
  -3  -5   7 4.56747 1.39688   1
   2   5   5 221.793 3.37662  -2
  -2  -5   7 221.793 3.37662   1
   1   5   5 16.4787 1.33934  -2
  -1  -5   7 16.4787 1.33934   1
   0   5   6 56.2863 1.50876  -2
   0  -5   7 56.2863 1.50876   1
  -1   5   6 15.2225 2.86663  -2
   1  -5   7 15.2225 2.86663   1
  -2   5   7 3.52305 1.01601  -2
   2  -5   7 3.52305 1.01601   1
  -3   5   8 107.419 4.61123  -2
   3  -5   7 107.419 4.61123   1
  -4   5   8 25.1564 1.49670  -2
   4  -5   7 25.1564 1.49670   1
  -5   5   9 9.32386 1.86416  -2
   5  -5   7 9.32386 1.86416   1
  -6   5   9 17.6154 1.93748  -2
   6  -5   7 17.6154 1.93748   1
   5   4   3 -1.2290 1.82195  -2
  -5  -4   7 -1.2290 1.82195   1
   4   4   4 15.6501 1.38381  -2
  -4  -4   7 15.6501 1.38381   1
   3   4   4 30.2181 1.66634  -2
  -3  -4   7 30.2181 1.66634   1
   2   4   5 95.6009 1.60120  -2
  -2  -4   7 95.6009 1.60120   1
  -1  -4   7 90.9138 1.64316   1
   0   4   6 38.5264 1.14650  -2
   0  -4   7 38.5264 1.14650   1
  -1   4   7 37.3969 1.60287  -2
   1  -4   7 37.3969 1.60287   1
  -2   4   7 1.52670 1.20776  -2
   2  -4   7 1.52670 1.20776   1
  -3   4   8 6.35566 1.26160  -2
   3  -4   7 6.35566 1.26160   1
  -4   4   8 178.130 2.97714  -2
   4  -4   7 178.130 2.97714   1
  -5   4   9 4.38823 1.22807  -2
   5  -4   7 4.38823 1.22807   1
   6  -4   7 4.85979 3.03370   1
  -7   4  10 2.83842 2.11065  -2
   7  -4   7 2.83842 2.11065   1
   6   3   3 1.27838 1.53536  -2
  -6  -3   7 1.27838 1.53536   1
  -5  -3   7 94.3216 2.49793   1
   4   3   4 29.7274 1.18615  -2
  -4  -3   7 29.7274 1.18615   1
   3   3   5 8.09359 1.09830  -2
  -3  -3   7 8.09359 1.09830   1
   2   3   5 16.6848 1.02860  -2
  -2  -3   7 16.6848 1.02860   1
   1   3   6 63.3431 1.48294  -2
  -1  -3   7 63.3431 1.48294   1
   0   3   6 29.3662 1.15831  -2
   0  -3   7 29.3662 1.15831   1
  -1   3   7 72.2555 1.61325  -2
   1  -3   7 72.2555 1.61325   1
  -2   3   7 69.9044 3.07417  -2
   2  -3   7 69.9044 3.07417   1
  -3   3   8 41.1211 1.19594  -2
   3  -3   7 41.1211 1.19594   1
  -4   3   9 -2.8623 1.13386  -2
   4  -3   7 -2.8623 1.13386   1
  -5   3   9 20.4488 1.05810  -2
   5  -3   7 20.4488 1.05810   1
  -6   3  10 38.1198 2.65289  -2
   6  -3   7 38.1198 2.65289   1
  -7   3  10 0.74156 2.54373  -2
   7  -3   7 0.74156 2.54373   1
   6   2   3 7.91240 1.51284  -2
  -6  -2   7 7.91240 1.51284   1
   5   2   4 20.3148 1.49327  -2
  -5  -2   7 20.3148 1.49327   1
   4   2   4 0.96064 1.16652  -2
  -4  -2   7 0.96064 1.16652   1
   3   2   5 3.47347 0.85286  -2
  -3  -2   7 3.47347 0.85286   1
   2   2   5 170.172 4.56864  -2
  -2  -2   7 170.172 4.56864   1
   1   2   6 1019.54 9.99280  -2
  -1  -2   7 1019.54 9.99280   1
   0  -2   7 3.55058 0.54754   1
  -1   2   7 39.6767 1.04394  -2
   1  -2   7 39.6767 1.04394   1
  -2   2   8 15.9979 0.94640  -2
   2  -2   7 15.9979 0.94640   1
  -3   2   8 52.5410 1.28735  -2
   3  -2   7 52.5410 1.28735   1
  -4   2   9 16.6835 1.14518  -2
   4  -2   7 16.6835 1.14518   1
  -5   2   9 12.1919 2.20639  -2
   5  -2   7 12.1919 2.20639   1
  -6   2  10 15.3499 1.45708  -2
   6  -2   7 15.3499 1.45708   1
  -7   2  11 4.96995 6.31850  -2
   7  -2   7 4.96995 6.31850   1
   7   1   3 13.4063 2.75031  -2
  -7  -1   7 13.4063 2.75031   1
   6   1   3 3.27464 1.78213  -2
  -6  -1   7 3.27464 1.78213   1
   5   1   4 34.2527 1.31672  -2
  -5  -1   7 34.2527 1.31672   1
   4   1   4 82.3202 5.83133  -2
  -4  -1   7 82.3202 5.83133   1
   3   1   5 19.9157 0.72431  -2
  -3  -1   7 19.9157 0.72431   1
   2   1   6 50.7185 1.50779  -2
  -2  -1   7 50.7185 1.50779   1
   1   1   6 58.7824 1.14748  -2
  -1  -1   7 58.7824 1.14748   1
   0   1   7 393.435 4.18137  -2
   0  -1   7 393.435 4.18137   1
  -1   1   7 321.988 3.52930  -2
   1  -1   7 321.988 3.52930   1
  -2   1   8 26.1157 0.75407  -2
   2  -1   7 26.1157 0.75407   1
   3  -1   7 18.8240 0.74963   1
  -4   1   9 48.7451 1.92605  -2
   4  -1   7 48.7451 1.92605   1
  -5   1  10 131.627 3.43982  -2
   5  -1   7 131.627 3.43982   1
  -6   1  10 17.6644 1.79397  -2
   6  -1   7 17.6644 1.79397   1
   7  -1   7 2.28316 2.51566   1
   7   0   3 1.12481 1.34217  -2
  -7   0   7 1.12481 1.34217   1
   6   0   4 2.51340 2.24894  -2
  -6   0   7 2.51340 2.24894   1
   5   0   4 8.85811 1.00628  -2
  -5   0   7 8.85811 1.00628   1
   4   0   5 202.226 2.13797  -2
  -4   0   7 202.226 2.13797   1
   3   0   5 18.0067 0.84497  -2
  -3   0   7 18.0067 0.84497   1
   2   0   6 10.3774 0.65545  -2
  -2   0   7 10.3774 0.65545   1
   1   0   6 755.351 14.8541  -2
  -1   0   7 755.351 14.8541   1
   0   0   7 53.1999 0.96343  -2
   0   0   7 53.1999 0.96343   1
  -1   0   8 25.5218 1.86646  -2
   1   0   7 25.5218 1.86646   1
  -2   0   8 110.677 1.28089  -2
   2   0   7 110.677 1.28089   1
  -3   0   9 35.7392 1.15620  -2
   3   0   7 35.7392 1.15620   1
  -4   0   9 74.4608 1.91594  -2
   4   0   7 74.4608 1.91594   1
  -5   0  10 17.7601 1.12569  -2
   5   0   7 17.7601 1.12569   1
   6   0   7 12.6206 2.25742   1
   7  -1   3 7.94743 1.77649  -2
  -7   1   7 7.94743 1.77649   1
   6  -1   4 28.1212 1.29724  -2
  -6   1   7 28.1212 1.29724   1
   5  -1   4 66.3373 1.68086  -2
  -5   1   7 66.3373 1.68086   1
   4  -1   5 4.61434 0.61464  -2
  -4   1   7 4.61434 0.61464   1
  -3   1   7 83.0030 1.26038   1
   2  -1   6 28.0057 0.84011  -2
  -2   1   7 28.0057 0.84011   1
   1  -1   7 191.698 3.04609  -2
  -1   1   7 191.698 3.04609   1
   0  -1   7 1695.58 14.9672  -2
   0   1   7 1695.58 14.9672   1
  -1  -1   8 127.857 1.55291  -2
   1   1   7 127.857 1.55291   1
  -2  -1   8 39.0361 1.85059  -2
   2   1   7 39.0361 1.85059   1
  -3  -1   9 36.3569 0.99830  -2
   3   1   7 36.3569 0.99830   1
   4   1   7 33.2662 1.00892   1
  -5  -1  10 47.1127 3.08659  -2
   5   1   7 47.1127 3.08659   1
  -6  -1  11 3.34051 5.82101  -2
   6   1   7 3.34051 5.82101   1
   7  -2   3 3.43258 4.41732  -2
  -7   2   7 3.43258 4.41732   1
   6  -2   4 6.05145 0.95912  -2
  -6   2   7 6.05145 0.95912   1
  -5   2   7 0.55664 0.54764   1
   4  -2   5 115.740 1.70170  -2
  -4   2   7 115.740 1.70170   1
   3  -2   6 191.214 2.40252  -2
  -3   2   7 191.214 2.40252   1
   2  -2   6 26.6455 1.46125  -2
  -2   2   7 26.6455 1.46125   1
   1  -2   7 202.046 2.07976  -2
  -1   2   7 202.046 2.07976   1
   0   2   7 277.325 2.61957   1
  -1  -2   8 204.438 2.00075  -2
   1   2   7 204.438 2.00075   1
  -2  -2   9 19.0668 1.50895  -2
   2   2   7 19.0668 1.50895   1
  -3  -2   9 33.1561 1.28208  -2
   3   2   7 33.1561 1.28208   1
  -4  -2  10 34.1533 1.63098  -2
   4   2   7 34.1533 1.63098   1
  -5  -2  10 0.68486 3.36918  -2
   5   2   7 0.68486 3.36918   1
   7  -3   4 20.6967 1.72083  -2
  -7   3   7 20.6967 1.72083   1
   6  -3   4 50.2339 1.68438  -2
  -6   3   7 50.2339 1.68438   1
   5  -3   5 45.5931 1.32829  -2
  -5   3   7 45.5931 1.32829   1
   4  -3   5 132.522 3.14867  -2
  -4   3   7 132.522 3.14867   1
   3  -3   6 145.767 1.97105  -2
  -3   3   7 145.767 1.97105   1
  -2   3   7 130.929 1.80018   1
   1  -3   7 184.648 2.01242  -2
  -1   3   7 184.648 2.01242   1
   0  -3   8 10.1134 0.86531  -2
   0   3   7 10.1134 0.86531   1
  -1  -3   8 5.40540 0.66328  -2
   1   3   7 5.40540 0.66328   1
  -2  -3   9 367.004 4.34083  -2
   2   3   7 367.004 4.34083   1
  -3  -3   9 76.7697 5.04905  -2
   3   3   7 76.7697 5.04905   1
  -4  -3  10 3.19405 1.10297  -2
   4   3   7 3.19405 1.10297   1
   5   3   7 4.02196 2.95721   1
   7  -4   4 54.3419 1.86843  -2
  -7   4   7 54.3419 1.86843   1
  -6   4   7 5.96192 0.84741   1
   5  -4   5 56.8824 1.47333  -2
  -5   4   7 56.8824 1.47333   1
   4  -4   6 27.2701 1.87374  -2
  -4   4   7 27.2701 1.87374   1
   3  -4   6 89.7524 1.94576  -2
  -3   4   7 89.7524 1.94576   1
   2  -4   7 2.70587 0.86082  -2
  -2   4   7 2.70587 0.86082   1
   1  -4   7 40.4192 2.02136  -2
  -1   4   7 40.4192 2.02136   1
   0  -4   8 22.2665 0.86418  -2
   0   4   7 22.2665 0.86418   1
   1   4   7 39.0555 1.01578   1
  -2  -4   9 19.1490 1.19750  -2
   2   4   7 19.1490 1.19750   1
  -3  -4  10 23.7587 4.44985  -2
   3   4   7 23.7587 4.44985   1
  -4  -4  10 -1.9700 4.10430  -2
   4   4   7 -1.9700 4.10430   1
   7  -5   4 4.13937 1.37477  -2
  -7   5   7 4.13937 1.37477   1
   6  -5   5 34.1514 1.92098  -2
  -6   5   7 34.1514 1.92098   1
   5  -5   5 91.7072 2.52744  -2
  -5   5   7 91.7072 2.52744   1
   4  -5   6 86.2384 2.27720  -2
  -4   5   7 86.2384 2.27720   1
   3  -5   6 2.64018 2.97590  -2
  -3   5   7 2.64018 2.97590   1
   2  -5   7 15.9060 0.84043  -2
  -2   5   7 15.9060 0.84043   1
   1  -5   8 8.46745 2.48735  -2
  -1   5   7 8.46745 2.48735   1
   0  -5   8 41.2197 1.18213  -2
   0   5   7 41.2197 1.18213   1
  -1  -5   9 428.317 4.88052  -2
   1   5   7 428.317 4.88052   1
  -2  -5   9 5.30166 1.99862  -2
   2   5   7 5.30166 1.99862   1
  -3  -5  10 22.1569 2.05490  -2
   3   5   7 22.1569 2.05490   1
  -4  -5  10 7.16480 5.21871  -2
   4   5   7 7.16480 5.21871   1
   7  -6   4 4.25760 2.50614  -2
  -7   6   7 4.25760 2.50614   1
   6  -6   5 1.50268 1.27394  -2
  -6   6   7 1.50268 1.27394   1
  -5   6   7 85.9155 2.34929   1
   4  -6   6 4.13161 1.42481  -2
  -4   6   7 4.13161 1.42481   1
   3  -6   7 7.18728 1.40147  -2
  -3   6   7 7.18728 1.40147   1
   2  -6   7 8.39320 1.32329  -2
  -2   6   7 8.39320 1.32329   1
   1  -6   8 135.471 2.12349  -2
  -1   6   7 135.471 2.12349   1
   0  -6   8 50.1120 1.77977  -2
   0   6   7 50.1120 1.77977   1
  -1  -6   9 10.7250 1.06312  -2
   1   6   7 10.7250 1.06312   1
   2   6   7 -0.3670 1.17631   1
  -3  -6  10 1.55207 1.81874  -2
   3   6   7 1.55207 1.81874   1
   6  -7   5 -0.7228 1.69517  -2
  -6   7   7 -0.7228 1.69517   1
   5  -7   6 19.5017 2.10270  -2
  -5   7   7 19.5017 2.10270   1
   4  -7   6 34.3899 2.21166  -2
  -4   7   7 34.3899 2.21166   1
   3  -7   7 -0.8687 1.25328  -2
  -3   7   7 -0.8687 1.25328   1
   2  -7   7 4.98663 2.27132  -2
  -2   7   7 4.98663 2.27132   1
   1  -7   8 43.4414 1.49944  -2
  -1   7   7 43.4414 1.49944   1
   0  -7   9 56.2160 2.01257  -2
   0   7   7 56.2160 2.01257   1
  -1  -7   9 76.8377 3.08898  -2
   1   7   7 76.8377 3.08898   1
   5  -8   6 34.6385 1.75365  -2
  -5   8   7 34.6385 1.75365   1
   4  -8   7 20.0166 2.80008  -2
  -4   8   7 20.0166 2.80008   1
   3  -8   7 -0.2339 1.35949  -2
  -3   8   7 -0.2339 1.35949   1
   2  -8   8 2.58859 1.46346  -2
  -2   8   7 2.58859 1.46346   1
   1  -8   8 51.4758 1.98967  -2
  -1   8   7 51.4758 1.98967   1
   0  -8   9 9.24973 1.55159  -2
   0   8   7 9.24973 1.55159   1
   0   8   6 5.35565 2.22121  -2
   0  -8   8 5.35565 2.22121   1
  -1   8   7 14.0441 2.10521  -2
   1  -8   8 14.0441 2.10521   1
  -2   8   7 0.69699 2.05777  -2
   2  -8   8 0.69699 2.05777   1
  -3   8   8 5.33265 1.51136  -2
   3  -8   8 5.33265 1.51136   1
   4  -8   8 4.45126 1.47176   1
   2   7   5 13.9327 2.08085  -2
  -2  -7   8 13.9327 2.08085   1
   1   7   6 37.1986 1.95628  -2
  -1  -7   8 37.1986 1.95628   1
   0   7   6 22.4789 2.60773  -2
   0  -7   8 22.4789 2.60773   1
  -1   7   7 21.4347 1.53267  -2
   1  -7   8 21.4347 1.53267   1
  -2   7   8 37.4769 4.16105  -2
   2  -7   8 37.4769 4.16105   1
  -3   7   8 5.13657 1.41529  -2
   3  -7   8 5.13657 1.41529   1
  -4   7   9 52.4254 2.39511  -2
   4  -7   8 52.4254 2.39511   1
  -5   7   9 9.20396 1.90918  -2
   5  -7   8 9.20396 1.90918   1
   3   6   5 7.24500 1.26648  -2
  -3  -6   8 7.24500 1.26648   1
  -2  -6   8 4.83438 0.98836   1
   1   6   6 23.7283 1.31117  -2
  -1  -6   8 23.7283 1.31117   1
   0   6   7 32.6459 1.99866  -2
   0  -6   8 32.6459 1.99866   1
  -1   6   7 30.1710 1.74349  -2
   1  -6   8 30.1710 1.74349   1
  -2   6   8 -0.7038 1.58228  -2
   2  -6   8 -0.7038 1.58228   1
  -3   6   8 -0.7154 1.75059  -2
   3  -6   8 -0.7154 1.75059   1
  -4   6   9 70.0593 1.99338  -2
   4  -6   8 70.0593 1.99338   1
   5  -6   8 5.60859 1.49029   1
  -6   6  10 9.00318 1.62555  -2
   6  -6   8 9.00318 1.62555   1
   4   5   5 37.0507 5.45803  -2
  -4  -5   8 37.0507 5.45803   1
   3   5   5 1.24562 1.30244  -2
  -3  -5   8 1.24562 1.30244   1
   2   5   6 35.5312 1.72352  -2
  -2  -5   8 35.5312 1.72352   1
   1   5   6 6.30917 1.34448  -2
  -1  -5   8 6.30917 1.34448   1
   0   5   7 70.6023 1.67000  -2
   0  -5   8 70.6023 1.67000   1
  -1   5   7 6.27567 2.08831  -2
   1  -5   8 6.27567 2.08831   1
  -2   5   8 26.0414 1.31746  -2
   2  -5   8 26.0414 1.31746   1
  -3   5   9 129.337 4.92130  -2
   3  -5   8 129.337 4.92130   1
  -4   5   9 14.6904 1.43142  -2
   4  -5   8 14.6904 1.43142   1
  -5   5  10 38.8036 2.19723  -2
   5  -5   8 38.8036 2.19723   1
  -6   5  10 48.0546 2.26218  -2
   6  -5   8 48.0546 2.26218   1
   5   4   4 7.29374 1.99303  -2
  -5  -4   8 7.29374 1.99303   1
   4   4   5 38.2603 1.63098  -2
  -4  -4   8 38.2603 1.63098   1
   3   4   5 1.22059 1.50555  -2
  -3  -4   8 1.22059 1.50555   1
   2   4   6 24.2312 1.12539  -2
  -2  -4   8 24.2312 1.12539   1
  -1  -4   8 59.5209 1.39809   1
   0   4   7 56.4097 1.33815  -2
   0  -4   8 56.4097 1.33815   1
  -1   4   8 19.2854 1.51082  -2
   1  -4   8 19.2854 1.51082   1
  -2   4   8 7.38836 1.29612  -2
   2  -4   8 7.38836 1.29612   1
  -3   4   9 3.08070 1.31441  -2
   3  -4   8 3.08070 1.31441   1
  -4   4   9 39.1962 1.63270  -2
   4  -4   8 39.1962 1.63270   1
  -5   4  10 13.7024 1.35463  -2
   5  -4   8 13.7024 1.35463   1
   6  -4   8 13.5355 3.52682   1
  -5  -3   8 0.79889 1.07220   1
   4   3   5 35.5358 1.29140  -2
  -4  -3   8 35.5358 1.29140   1
   3   3   6 6.78846 1.37132  -2
  -3  -3   8 6.78846 1.37132   1
   2   3   6 48.3967 1.37453  -2
  -2  -3   8 48.3967 1.37453   1
   1   3   7 16.6441 1.13075  -2
  -1  -3   8 16.6441 1.13075   1
   0   3   7 43.2281 1.30277  -2
   0  -3   8 43.2281 1.30277   1
  -1   3   8 0.34163 0.93686  -2
   1  -3   8 0.34163 0.93686   1
  -2   3   8 15.1374 2.36598  -2
   2  -3   8 15.1374 2.36598   1
  -3   3   9 60.7819 1.34559  -2
   3  -3   8 60.7819 1.34559   1
  -4   3  10 9.28843 1.63313  -2
   4  -3   8 9.28843 1.63313   1
  -5   3  10 24.6425 1.44920  -2
   5  -3   8 24.6425 1.44920   1
  -6   3  11 41.0824 2.76469  -2
   6  -3   8 41.0824 2.76469   1
  -7   3  11 1.63511 2.63626  -2
   7  -3   8 1.63511 2.63626   1
   6   2   4 10.3839 1.62571  -2
  -6  -2   8 10.3839 1.62571   1
   5   2   5 9.32913 1.45938  -2
  -5  -2   8 9.32913 1.45938   1
   4   2   5 72.2656 1.79667  -2
  -4  -2   8 72.2656 1.79667   1
   3   2   6 30.0781 1.08111  -2
  -3  -2   8 30.0781 1.08111   1
   2   2   6 28.2149 2.38439  -2
  -2  -2   8 28.2149 2.38439   1
   1   2   7 202.976 2.53245  -2
  -1  -2   8 202.976 2.53245   1
   0  -2   8 33.8144 0.99151   1
  -1   2   8 40.4102 1.10945  -2
   1  -2   8 40.4102 1.10945   1
  -2   2   9 192.926 2.32544  -2
   2  -2   8 192.926 2.32544   1
  -3   2   9 6.21139 0.97213  -2
   3  -2   8 6.21139 0.97213   1
  -4   2  10 59.7932 1.63907  -2
   4  -2   8 59.7932 1.63907   1
  -5   2  10 13.7790 2.64852  -2
   5  -2   8 13.7790 2.64852   1
  -6   2  11 13.9886 1.85556  -2
   6  -2   8 13.9886 1.85556   1
   6   1   4 13.8838 2.00047  -2
  -6  -1   8 13.8838 2.00047   1
   5   1   5 52.0094 1.50667  -2
  -5  -1   8 52.0094 1.50667   1
   4   1   5 92.7835 6.09084  -2
  -4  -1   8 92.7835 6.09084   1
   3   1   6 44.5883 0.96051  -2
  -3  -1   8 44.5883 0.96051   1
   2   1   7 10.2213 1.14086  -2
  -2  -1   8 10.2213 1.14086   1
   1   1   7 25.6521 0.96468  -2
  -1  -1   8 25.6521 0.96468   1
   0   1   8 25.5360 1.01690  -2
   0  -1   8 25.5360 1.01690   1
  -1   1   8 372.462 4.04831  -2
   1  -1   8 372.462 4.04831   1
  -2   1   9 0.85301 0.58195  -2
   2  -1   8 0.85301 0.58195   1
   3  -1   8 2.16969 0.57082   1
  -4   1  10 13.6502 1.18633  -2
   4  -1   8 13.6502 1.18633   1
  -5   1  11 56.5125 2.62437  -2
   5  -1   8 56.5125 2.62437   1
  -6   1  11 8.61953 2.07041  -2
   6  -1   8 8.61953 2.07041   1
   7   0   4 2.35419 1.67543  -2
  -7   0   8 2.35419 1.67543   1
   6   0   5 1.81913 1.82573  -2
  -6   0   8 1.81913 1.82573   1
   5   0   5 0.09514 0.99275  -2
  -5   0   8 0.09514 0.99275   1
   4   0   6 44.6045 1.18617  -2
  -4   0   8 44.6045 1.18617   1
   3   0   6 57.5979 1.16834  -2
  -3   0   8 57.5979 1.16834   1
   2   0   7 132.883 1.79876  -2
  -2   0   8 132.883 1.79876   1
   1   0   7 10.4207 2.30876  -2
  -1   0   8 10.4207 2.30876   1
   0   0   8 22.1766 0.75848  -2
   0   0   8 22.1766 0.75848   1
   1   0   8 476.474 4.29887   1
  -2   0   9 22.4146 0.68753  -2
   2   0   8 22.4146 0.68753   1
  -3   0  10 34.1253 1.23709  -2
   3   0   8 34.1253 1.23709   1
  -4   0  10 57.4492 1.86952  -2
   4   0   8 57.4492 1.86952   1
  -5   0  11 25.8650 1.34501  -2
   5   0   8 25.8650 1.34501   1
   6   0   8 26.0437 4.97099   1
   7  -1   4 0.33563 2.32679  -2
  -7   1   8 0.33563 2.32679   1
   6  -1   5 18.7186 1.31238  -2
  -6   1   8 18.7186 1.31238   1
   5  -1   5 45.0463 1.61290  -2
  -5   1   8 45.0463 1.61290   1
   4  -1   6 31.1559 0.81938  -2
  -4   1   8 31.1559 0.81938   1
  -3   1   8 4.34403 0.55257   1
   2  -1   7 90.4811 1.26413  -2
  -2   1   8 90.4811 1.26413   1
   1  -1   8 237.741 3.06175  -2
  -1   1   8 237.741 3.06175   1
   0  -1   8 128.880 1.74250  -2
   0   1   8 128.880 1.74250   1
  -1  -1   9 14.2047 0.76155  -2
   1   1   8 14.2047 0.76155   1
  -2  -1   9 33.0989 1.11391  -2
   2   1   8 33.0989 1.11391   1
  -3  -1  10 299.521 3.72968  -2
   3   1   8 299.521 3.72968   1
   4   1   8 2.32325 0.68218   1
  -5  -1  11 7.25681 4.39407  -2
   5   1   8 7.25681 4.39407   1
  -6  -1  12 4.25775 5.76974  -2
   6   1   8 4.25775 5.76974   1
   7  -2   4 2.81376 2.46498  -2
  -7   2   8 2.81376 2.46498   1
   6  -2   5 105.783 1.95397  -2
  -6   2   8 105.783 1.95397   1
  -5   2   8 1.73220 0.60577   1
   4  -2   6 129.658 1.87330  -2
  -4   2   8 129.658 1.87330   1
   3  -2   7 13.0262 1.10461  -2
  -3   2   8 13.0262 1.10461   1
   2  -2   7 4.17504 1.02381  -2
  -2   2   8 4.17504 1.02381   1
   1  -2   8 108.973 1.60534  -2
  -1   2   8 108.973 1.60534   1
   0   2   8 121.549 1.45652   1
  -1  -2   9 38.6293 0.76706  -2
   1   2   8 38.6293 0.76706   1
  -2  -2  10 1.15904 2.56602  -2
   2   2   8 1.15904 2.56602   1
  -3  -2  10 88.0110 2.01598  -2
   3   2   8 88.0110 2.01598   1
  -4  -2  11 63.4572 1.65589  -2
   4   2   8 63.4572 1.65589   1
   7  -3   5 2.66413 1.62364  -2
  -7   3   8 2.66413 1.62364   1
   6  -3   5 39.9255 1.76745  -2
  -6   3   8 39.9255 1.76745   1
   5  -3   6 18.5376 1.20481  -2
  -5   3   8 18.5376 1.20481   1
   4  -3   6 20.5732 2.95109  -2
  -4   3   8 20.5732 2.95109   1
   3  -3   7 196.028 2.28414  -2
  -3   3   8 196.028 2.28414   1
  -2   3   8 42.1116 1.08763   1
   1  -3   8 -0.5593 0.71980  -2
  -1   3   8 -0.5593 0.71980   1
   0  -3   9 3.76110 0.88253  -2
   0   3   8 3.76110 0.88253   1
  -1  -3   9 35.9738 0.92594  -2
   1   3   8 35.9738 0.92594   1
  -2  -3  10 393.676 4.68714  -2
   2   3   8 393.676 4.68714   1
  -3  -3  10 79.8284 2.94784  -2
   3   3   8 79.8284 2.94784   1
  -4  -3  11 1.81742 1.21474  -2
   4   3   8 1.81742 1.21474   1
   5   3   8 21.7140 3.88998   1
   7  -4   5 120.455 2.57561  -2
  -7   4   8 120.455 2.57561   1
  -6   4   8 43.9136 1.41654   1
   5  -4   6 24.6393 1.10934  -2
  -5   4   8 24.6393 1.10934   1
   4  -4   7 144.846 3.62007  -2
  -4   4   8 144.846 3.62007   1
   3  -4   7 1.70194 1.08320  -2
  -3   4   8 1.70194 1.08320   1
   2  -4   8 8.21916 0.89698  -2
  -2   4   8 8.21916 0.89698   1
   1  -4   8 38.2363 1.30310  -2
  -1   4   8 38.2363 1.30310   1
   0  -4   9 10.5088 0.81870  -2
   0   4   8 10.5088 0.81870   1
   1   4   8 264.024 2.97458   1
  -2  -4  10 31.4643 1.21370  -2
   2   4   8 31.4643 1.21370   1
  -3  -4  11 3.09563 1.87205  -2
   3   4   8 3.09563 1.87205   1
  -4  -4  11 0.43477 4.32282  -2
   4   4   8 0.43477 4.32282   1
   7  -5   5 22.8080 1.66287  -2
  -7   5   8 22.8080 1.66287   1
   6  -5   6 45.2438 1.85674  -2
  -6   5   8 45.2438 1.85674   1
   5  -5   6 1.58910 1.46228  -2
  -5   5   8 1.58910 1.46228   1
   4  -5   7 52.7195 1.73145  -2
  -4   5   8 52.7195 1.73145   1
   3  -5   7 134.003 3.62252  -2
  -3   5   8 134.003 3.62252   1
   2  -5   8 9.15018 0.77845  -2
  -2   5   8 9.15018 0.77845   1
   1  -5   9 23.1371 2.83338  -2
  -1   5   8 23.1371 2.83338   1
   0  -5   9 206.957 2.52853  -2
   0   5   8 206.957 2.52853   1
  -1  -5  10 125.057 2.19351  -2
   1   5   8 125.057 2.19351   1
  -2  -5  10 107.457 3.28937  -2
   2   5   8 107.457 3.28937   1
  -3  -5  11 2.98181 1.85059  -2
   3   5   8 2.98181 1.85059   1
   6  -6   6 8.52379 1.34513  -2
  -6   6   8 8.52379 1.34513   1
   5  -6   7 63.6695 3.31916  -2
  -5   6   8 63.6695 3.31916   1
   4  -6   7 24.0265 1.66685  -2
  -4   6   8 24.0265 1.66685   1
   3  -6   8 -1.0434 1.51129  -2
  -3   6   8 -1.0434 1.51129   1
   2  -6   8 -0.6158 1.15346  -2
  -2   6   8 -0.6158 1.15346   1
   1  -6   9 79.6334 1.71452  -2
  -1   6   8 79.6334 1.71452   1
   0  -6   9 234.813 3.39993  -2
   0   6   8 234.813 3.39993   1
  -1  -6  10 1.08565 1.36455  -2
   1   6   8 1.08565 1.36455   1
  -2  -6  11 15.8819 2.44275  -2
   2   6   8 15.8819 2.44275   1
   6  -7   6 2.92065 1.71107  -2
  -6   7   8 2.92065 1.71107   1
   5  -7   7 31.3350 2.24429  -2
  -5   7   8 31.3350 2.24429   1
   4  -7   7 17.5033 2.13209  -2
  -4   7   8 17.5033 2.13209   1
   3  -7   8 33.3977 1.63128  -2
  -3   7   8 33.3977 1.63128   1
   2  -7   8 12.1274 3.57026  -2
  -2   7   8 12.1274 3.57026   1
   1  -7   9 34.5820 1.40917  -2
  -1   7   8 34.5820 1.40917   1
   0  -7  10 45.5047 1.92894  -2
   0   7   8 45.5047 1.92894   1
  -1  -7  10 2.15314 2.12016  -2
   1   7   8 2.15314 2.12016   1
   5  -8   7 2.95389 1.42334  -2
  -5   8   8 2.95389 1.42334   1
   4  -8   8 14.1752 3.95029  -2
  -4   8   8 14.1752 3.95029   1
   3  -8   8 -1.1867 1.37375  -2
  -3   8   8 -1.1867 1.37375   1
   2  -8   9 3.27300 1.68106  -2
  -2   8   8 3.27300 1.68106   1
   1  -8   9 9.09934 1.62167  -2
  -1   8   8 9.09934 1.62167   1
   0   8   7 9.31563 2.30794  -2
   0  -8   9 9.31563 2.30794   1
  -1   8   8 6.23133 2.13839  -2
   1  -8   9 6.23133 2.13839   1
  -2   8   8 0.29275 2.14367  -2
   2  -8   9 0.29275 2.14367   1
  -3   8   9 28.0326 1.80246  -2
   3  -8   9 28.0326 1.80246   1
  -4   8   9 15.8764 4.02045  -2
   4  -8   9 15.8764 4.02045   1
   2   7   6 27.7968 2.05649  -2
  -2  -7   9 27.7968 2.05649   1
   1   7   7 82.0762 2.54385  -2
  -1  -7   9 82.0762 2.54385   1
   0   7   7 49.7958 2.38952  -2
   0  -7   9 49.7958 2.38952   1
  -1   7   8 7.60659 1.25894  -2
   1  -7   9 7.60659 1.25894   1
  -2   7   9 47.0001 3.14275  -2
   2  -7   9 47.0001 3.14275   1
  -3   7   9 0.96476 1.56545  -2
   3  -7   9 0.96476 1.56545   1
  -4   7  10 27.4033 2.22390  -2
   4  -7   9 27.4033 2.22390   1
  -5   7  10 2.37315 2.41171  -2
   5  -7   9 2.37315 2.41171   1
   3   6   6 4.40009 1.24555  -2
  -3  -6   9 4.40009 1.24555   1
  -2  -6   9 0.21480 0.88480   1
   1   6   7 16.5787 1.26983  -2
  -1  -6   9 16.5787 1.26983   1
   0   6   8 54.1198 2.23367  -2
   0  -6   9 54.1198 2.23367   1
  -1   6   8 33.9734 1.87001  -2
   1  -6   9 33.9734 1.87001   1
  -2   6   9 25.1839 1.87076  -2
   2  -6   9 25.1839 1.87076   1
  -3   6   9 27.1295 2.00995  -2
   3  -6   9 27.1295 2.00995   1
  -4   6  10 2.23688 1.30704  -2
   4  -6   9 2.23688 1.30704   1
   5  -6   9 0.02365 1.36829   1
  -6   6  11 28.9489 1.91389  -2
   6  -6   9 28.9489 1.91389   1
   4   5   6 9.48652 4.77030  -2
  -4  -5   9 9.48652 4.77030   1
   3   5   6 4.30974 1.42390  -2
  -3  -5   9 4.30974 1.42390   1
   2   5   7 3.09210 1.30662  -2
  -2  -5   9 3.09210 1.30662   1
   1   5   7 98.0076 2.12072  -2
  -1  -5   9 98.0076 2.12072   1
   0   5   8 40.2525 1.38951  -2
   0  -5   9 40.2525 1.38951   1
  -1   5   8 25.6651 2.30889  -2
   1  -5   9 25.6651 2.30889   1
  -2   5   9 1.87539 1.06738  -2
   2  -5   9 1.87539 1.06738   1
  -3   5  10 31.9081 3.47093  -2
   3  -5   9 31.9081 3.47093   1
  -4   5  10 37.3366 1.71263  -2
   4  -5   9 37.3366 1.71263   1
  -5   5  11 16.3260 2.04504  -2
   5  -5   9 16.3260 2.04504   1
  -6   5  11 3.03935 1.91652  -2
   6  -5   9 3.03935 1.91652   1
   5   4   5 35.3911 2.33373  -2
  -5  -4   9 35.3911 2.33373   1
   4   4   6 25.0278 1.53657  -2
  -4  -4   9 25.0278 1.53657   1
   3   4   6 43.2280 1.89553  -2
  -3  -4   9 43.2280 1.89553   1
   2   4   7 12.7457 1.06733  -2
  -2  -4   9 12.7457 1.06733   1
  -1  -4   9 12.5593 0.96832   1
   0   4   8 27.2479 1.09431  -2
   0  -4   9 27.2479 1.09431   1
  -1   4   9 141.596 2.74363  -2
   1  -4   9 141.596 2.74363   1
  -2   4   9 20.8787 1.48534  -2
   2  -4   9 20.8787 1.48534   1
  -3   4  10 102.187 2.28431  -2
   3  -4   9 102.187 2.28431   1
  -4   4  10 2.16186 1.39395  -2
   4  -4   9 2.16186 1.39395   1
  -5   4  11 8.92599 1.32977  -2
   5  -4   9 8.92599 1.32977   1
   6  -4   9 4.97276 2.85267   1
  -5  -3   9 24.1413 1.52640   1
   4   3   6 6.57418 1.04611  -2
  -4  -3   9 6.57418 1.04611   1
   3   3   7 175.598 3.10693  -2
  -3  -3   9 175.598 3.10693   1
   2   3   7 75.4917 1.67080  -2
  -2  -3   9 75.4917 1.67080   1
   1   3   8 34.5079 1.33433  -2
  -1  -3   9 34.5079 1.33433   1
   0   3   8 24.1575 1.19909  -2
   0  -3   9 24.1575 1.19909   1
  -1   3   9 37.7137 1.35087  -2
   1  -3   9 37.7137 1.35087   1
  -2   3   9 50.4102 3.00564  -2
   2  -3   9 50.4102 3.00564   1
  -3   3  10 69.9774 1.48593  -2
   3  -3   9 69.9774 1.48593   1
  -4   3  11 95.9708 2.49026  -2
   4  -3   9 95.9708 2.49026   1
  -5   3  11 19.8393 1.44798  -2
   5  -3   9 19.8393 1.44798   1
  -6   3  12 13.8170 2.50331  -2
   6  -3   9 13.8170 2.50331   1
   6   2   5 3.45225 1.53918  -2
  -6  -2   9 3.45225 1.53918   1
   5   2   6 37.5077 1.96606  -2
  -5  -2   9 37.5077 1.96606   1
   4   2   6 13.7310 1.36745  -2
  -4  -2   9 13.7310 1.36745   1
   3   2   7 91.7167 1.55555  -2
  -3  -2   9 91.7167 1.55555   1
   2   2   7 16.3628 2.40965  -2
  -2  -2   9 16.3628 2.40965   1
   1   2   8 17.9102 0.87632  -2
  -1  -2   9 17.9102 0.87632   1
   0  -2   9 153.897 2.14118   1
  -1   2   9 331.406 3.76928  -2
   1  -2   9 331.406 3.76928   1
  -2   2  10 164.354 2.14774  -2
   2  -2   9 164.354 2.14774   1
  -3   2  10 106.439 1.66996  -2
   3  -2   9 106.439 1.66996   1
  -4   2  11 43.5341 1.55710  -2
   4  -2   9 43.5341 1.55710   1
  -5   2  11 71.5110 3.07743  -2
   5  -2   9 71.5110 3.07743   1
  -6   2  12 3.92699 1.81564  -2
   6  -2   9 3.92699 1.81564   1
   6   1   5 14.3119 2.05537  -2
  -6  -1   9 14.3119 2.05537   1
   5   1   6 25.2611 1.29894  -2
  -5  -1   9 25.2611 1.29894   1
   4   1   6 73.9817 5.66594  -2
  -4  -1   9 73.9817 5.66594   1
   3   1   7 137.060 1.71564  -2
  -3  -1   9 137.060 1.71564   1
   2   1   8 18.1328 1.24234  -2
  -2  -1   9 18.1328 1.24234   1
   1   1   8 6.90337 0.89566  -2
  -1  -1   9 6.90337 0.89566   1
   0   1   9 5.11380 0.87232  -2
   0  -1   9 5.11380 0.87232   1
  -1   1   9 8.63029 1.01422  -2
   1  -1   9 8.63029 1.01422   1
  -2   1  10 182.633 2.13905  -2
   2  -1   9 182.633 2.13905   1
   3  -1   9 4.81277 0.64391   1
  -4   1  11 196.504 3.23329  -2
   4  -1   9 196.504 3.23329   1
  -5   1  12 1.77729 2.17721  -2
   5  -1   9 1.77729 2.17721   1
  -6   1  12 4.69824 1.59029  -2
   6  -1   9 4.69824 1.59029   1
   7   0   5 8.37895 1.78930  -2
  -7   0   9 8.37895 1.78930   1
   6   0   6 3.64318 2.22921  -2
  -6   0   9 3.64318 2.22921   1
   5   0   6 134.052 2.09981  -2
  -5   0   9 134.052 2.09981   1
   4   0   7 21.3507 1.08188  -2
  -4   0   9 21.3507 1.08188   1
   3   0   7 13.8779 0.91878  -2
  -3   0   9 13.8779 0.91878   1
   2   0   8 5.43041 0.84514  -2
  -2   0   9 5.43041 0.84514   1
   1   0   8 96.5529 3.48736  -2
  -1   0   9 96.5529 3.48736   1
   0   0   9 4.06176 0.56517  -2
   0   0   9 4.06176 0.56517   1
   1   0   9 35.3842 0.86625   1
  -2   0  10 68.1236 1.06866  -2
   2   0   9 68.1236 1.06866   1
  -3   0  11 26.3722 1.32706  -2
   3   0   9 26.3722 1.32706   1
  -4   0  11 159.159 3.12251  -2
   4   0   9 159.159 3.12251   1
  -5   0  12 27.9849 1.48076  -2
   5   0   9 27.9849 1.48076   1
   6   0   9 1.43284 3.28704   1
   7  -1   5 31.9674 2.83493  -2
  -7   1   9 31.9674 2.83493   1
   6  -1   6 7.51615 1.32687  -2
  -6   1   9 7.51615 1.32687   1
   5  -1   6 143.535 2.15310  -2
  -5   1   9 143.535 2.15310   1
   4  -1   7 51.9344 0.99083  -2
  -4   1   9 51.9344 0.99083   1
  -3   1   9 9.80103 0.69564   1
   2  -1   8 1.63209 0.65277  -2
  -2   1   9 1.63209 0.65277   1
   1  -1   9 6.90000 1.04275  -2
  -1   1   9 6.90000 1.04275   1
   0  -1   9 19.7208 0.98517  -2
   0   1   9 19.7208 0.98517   1
  -1  -1  10 27.1647 0.91650  -2
   1   1   9 27.1647 0.91650   1
  -2  -1  10 19.1846 1.15296  -2
   2   1   9 19.1846 1.15296   1
  -3  -1  11 98.7764 1.77261  -2
   3   1   9 98.7764 1.77261   1
  -4  -1  12 5.43589 4.83690  -2
   4   1   9 5.43589 4.83690   1
  -5  -1  12 10.1738 4.59147  -2
   5   1   9 10.1738 4.59147   1
   7  -2   5 7.52181 2.96307  -2
  -7   2   9 7.52181 2.96307   1
   6  -2   6 49.9726 1.48508  -2
  -6   2   9 49.9726 1.48508   1
   5  -2   7 10.7528 2.19844  -2
  -5   2   9 10.7528 2.19844   1
   4  -2   7 6.81395 0.99625  -2
  -4   2   9 6.81395 0.99625   1
   3  -2   8 4.15801 1.02411  -2
  -3   2   9 4.15801 1.02411   1
   2  -2   8 69.0529 1.52092  -2
  -2   2   9 69.0529 1.52092   1
   1  -2   9 81.5978 1.43516  -2
  -1   2   9 81.5978 1.43516   1
   0   2   9 18.5862 0.70549   1
  -1  -2  10 6.32115 0.58102  -2
   1   2   9 6.32115 0.58102   1
  -2  -2  11 305.679 5.52679  -2
   2   2   9 305.679 5.52679   1
  -3  -2  11 114.645 2.43313  -2
   3   2   9 114.645 2.43313   1
  -4  -2  12 20.6434 1.53480  -2
   4   2   9 20.6434 1.53480   1
   7  -3   6 16.4601 1.87787  -2
  -7   3   9 16.4601 1.87787   1
   6  -3   6 151.436 2.85543  -2
  -6   3   9 151.436 2.85543   1
   5  -3   7 7.95064 1.25593  -2
  -5   3   9 7.95064 1.25593   1
   4  -3   7 4.48482 2.07962  -2
  -4   3   9 4.48482 2.07962   1
   3  -3   8 18.3261 0.92141  -2
  -3   3   9 18.3261 0.92141   1
  -2   3   9 36.3030 1.09042   1
   1  -3   9 152.983 1.83972  -2
  -1   3   9 152.983 1.83972   1
   0  -3  10 27.2537 1.05989  -2
   0   3   9 27.2537 1.05989   1
  -1  -3  10 208.721 2.25256  -2
   1   3   9 208.721 2.25256   1
  -2  -3  11 289.523 3.72313  -2
   2   3   9 289.523 3.72313   1
  -3  -3  11 6.42710 1.56274  -2
   3   3   9 6.42710 1.56274   1
  -4  -3  12 6.35379 1.43512  -2
   4   3   9 6.35379 1.43512   1
   5   3   9 3.11884 2.99616   1
   7  -4   6 31.4461 1.72810  -2
  -7   4   9 31.4461 1.72810   1
  -6   4   9 0.18070 0.79006   1
   5  -4   7 15.3142 1.11472  -2
  -5   4   9 15.3142 1.11472   1
   4  -4   8 114.100 2.77102  -2
  -4   4   9 114.100 2.77102   1
   3  -4   8 11.8351 1.32129  -2
  -3   4   9 11.8351 1.32129   1
   2  -4   9 7.32876 0.86934  -2
  -2   4   9 7.32876 0.86934   1
   1  -4   9 31.8912 1.19084  -2
  -1   4   9 31.8912 1.19084   1
   0  -4  10 138.086 1.79589  -2
   0   4   9 138.086 1.79589   1
  -1  -4  10 519.584 11.2263  -2
   1   4   9 519.584 11.2263   1
  -2  -4  11 13.4183 1.32173  -2
   2   4   9 13.4183 1.32173   1
  -3  -4  12 54.3513 2.61283  -2
   3   4   9 54.3513 2.61283   1
  -4  -4  12 0.89983 4.46462  -2
   4   4   9 0.89983 4.46462   1
   7  -5   6 1.46057 1.44587  -2
  -7   5   9 1.46057 1.44587   1
   6  -5   7 53.8411 1.97838  -2
  -6   5   9 53.8411 1.97838   1
   5  -5   7 2.70298 1.52899  -2
  -5   5   9 2.70298 1.52899   1
   4  -5   8 85.9773 2.06850  -2
  -4   5   9 85.9773 2.06850   1
   3  -5   8 36.9642 2.56392  -2
  -3   5   9 36.9642 2.56392   1
   2  -5   9 8.52950 0.83621  -2
  -2   5   9 8.52950 0.83621   1
   1  -5  10 57.8063 5.05939  -2
  -1   5   9 57.8063 5.05939   1
   0  -5  10 26.9167 1.35356  -2
   0   5   9 26.9167 1.35356   1
  -1  -5  11 8.47260 1.28715  -2
   1   5   9 8.47260 1.28715   1
  -2  -5  11 3.51593 1.99536  -2
   2   5   9 3.51593 1.99536   1
  -3  -5  12 20.0883 2.12303  -2
   3   5   9 20.0883 2.12303   1
   6  -6   7 16.6574 1.29879  -2
  -6   6   9 16.6574 1.29879   1
   5  -6   8 30.9680 4.33185  -2
  -5   6   9 30.9680 4.33185   1
   4  -6   8 16.6832 1.39831  -2
  -4   6   9 16.6832 1.39831   1
   3  -6   9 68.6924 2.48729  -2
  -3   6   9 68.6924 2.48729   1
   2  -6   9 51.6727 1.57340  -2
  -2   6   9 51.6727 1.57340   1
   1  -6  10 6.88161 1.18313  -2
  -1   6   9 6.88161 1.18313   1
   0  -6  10 51.4156 1.84771  -2
   0   6   9 51.4156 1.84771   1
  -1  -6  11 43.1938 1.85332  -2
   1   6   9 43.1938 1.85332   1
  -2  -6  12 12.3027 5.04475  -2
   2   6   9 12.3027 5.04475   1
   6  -7   7 107.275 2.55155  -2
  -6   7   9 107.275 2.55155   1
   5  -7   8 13.6796 1.82198  -2
  -5   7   9 13.6796 1.82198   1
   4  -7   8 12.7177 1.78803  -2
  -4   7   9 12.7177 1.78803   1
   3  -7   9 1.12019 1.31140  -2
  -3   7   9 1.12019 1.31140   1
   2  -7   9 17.8829 2.06363  -2
  -2   7   9 17.8829 2.06363   1
   1  -7  10 1.63565 1.10626  -2
  -1   7   9 1.63565 1.10626   1
   0  -7  11 75.9514 2.17660  -2
   0   7   9 75.9514 2.17660   1
  -1  -7  11 8.91184 2.27862  -2
   1   7   9 8.91184 2.27862   1
   4  -8   9 15.0526 2.91808  -2
  -4   8   9 15.0526 2.91808   1
   3  -8   9 10.9946 1.45024  -2
  -3   8   9 10.9946 1.45024   1
   2  -8  10 8.43975 2.01997  -2
  -2   8   9 8.43975 2.01997   1
   1  -8  10 -0.2951 1.54867  -2
  -1   8   9 -0.2951 1.54867   1
  -1   8   9 5.15029 2.19160  -2
   1  -8  10 5.15029 2.19160   1
  -2   8   9 3.19070 2.22378  -2
   2  -8  10 3.19070 2.22378   1
  -3   8  10 8.87324 1.61074  -2
   3  -8  10 8.87324 1.61074   1
   1   7   8 6.54020 2.16585  -2
  -1  -7  10 6.54020 2.16585   1
   0   7   8 29.6668 2.29761  -2
   0  -7  10 29.6668 2.29761   1
  -1   7   9 1.42078 1.22021  -2
   1  -7  10 1.42078 1.22021   1
  -2   7  10 33.7886 3.08597  -2
   2  -7  10 33.7886 3.08597   1
  -3   7  10 18.1013 1.81760  -2
   3  -7  10 18.1013 1.81760   1
  -4   7  11 50.9642 2.43129  -2
   4  -7  10 50.9642 2.43129   1
  -5   7  11 0.94300 2.44980  -2
   5  -7  10 0.94300 2.44980   1
   3   6   7 3.33135 1.30307  -2
  -3  -6  10 3.33135 1.30307   1
  -2  -6  10 57.3256 1.83196   1
   1   6   8 0.22553 1.16738  -2
  -1  -6  10 0.22553 1.16738   1
   0   6   9 15.9361 1.99159  -2
   0  -6  10 15.9361 1.99159   1
  -1   6   9 3.46992 1.60466  -2
   1  -6  10 3.46992 1.60466   1
  -2   6  10 34.8703 2.01129  -2
   2  -6  10 34.8703 2.01129   1
  -3   6  10 1.91744 1.86574  -2
   3  -6  10 1.91744 1.86574   1
  -4   6  11 32.7632 1.63473  -2
   4  -6  10 32.7632 1.63473   1
   5  -6  10 -0.7789 1.35518   1
   4   5   7 20.8300 2.27163  -2
  -4  -5  10 20.8300 2.27163   1
   3   5   7 2.97959 1.33859  -2
  -3  -5  10 2.97959 1.33859   1
   2   5   8 34.9568 1.69695  -2
  -2  -5  10 34.9568 1.69695   1
   1   5   8 51.7924 1.78187  -2
  -1  -5  10 51.7924 1.78187   1
   0   5   9 14.0282 1.22503  -2
   0  -5  10 14.0282 1.22503   1
  -1   5   9 85.7975 4.45861  -2
   1  -5  10 85.7975 4.45861   1
  -2   5  10 3.02077 1.11123  -2
   2  -5  10 3.02077 1.11123   1
  -3   5  11 21.0391 3.56283  -2
   3  -5  10 21.0391 3.56283   1
  -4   5  11 20.6883 1.53937  -2
   4  -5  10 20.6883 1.53937   1
  -5   5  12 0.92921 1.92245  -2
   5  -5  10 0.92921 1.92245   1
  -6   5  12 40.1483 3.34105  -2
   6  -5  10 40.1483 3.34105   1
   4   4   7 9.24577 1.53086  -2
  -4  -4  10 9.24577 1.53086   1
   3   4   7 7.15884 1.61775  -2
  -3  -4  10 7.15884 1.61775   1
   2   4   8 6.63179 1.04304  -2
  -2  -4  10 6.63179 1.04304   1
  -1  -4  10 19.4884 1.12032   1
   0   4   9 29.2324 1.16970  -2
   0  -4  10 29.2324 1.16970   1
  -1   4  10 8.41276 1.53512  -2
   1  -4  10 8.41276 1.53512   1
  -2   4  10 158.778 2.91433  -2
   2  -4  10 158.778 2.91433   1
  -3   4  11 4.66977 1.38821  -2
   3  -4  10 4.66977 1.38821   1
  -4   4  11 53.8183 2.23467  -2
   4  -4  10 53.8183 2.23467   1
  -5   4  12 0.67872 1.31352  -2
   5  -4  10 0.67872 1.31352   1
  -6   4  13 93.6403 7.46994  -2
   6  -4  10 93.6403 7.46994   1
  -5  -3  10 -0.3666 0.90407   1
   4   3   7 13.6263 1.19087  -2
  -4  -3  10 13.6263 1.19087   1
   3   3   8 21.0193 1.64714  -2
  -3  -3  10 21.0193 1.64714   1
   2   3   8 80.2309 1.78147  -2
  -2  -3  10 80.2309 1.78147   1
   1   3   9 46.6191 1.48257  -2
  -1  -3  10 46.6191 1.48257   1
   0   3   9 95.9525 1.87203  -2
   0  -3  10 95.9525 1.87203   1
  -1   3  10 110.898 1.91301  -2
   1  -3  10 110.898 1.91301   1
   2  -3  10 37.1326 1.32909   1
  -3   3  11 39.8164 1.23662  -2
   3  -3  10 39.8164 1.23662   1
  -4   3  12 35.2553 2.82839  -2
   4  -3  10 35.2553 2.82839   1
  -5   3  12 205.525 5.01734  -2
   5  -3  10 205.525 5.01734   1
  -6   3  13 8.29650 2.59948  -2
   6  -3  10 8.29650 2.59948   1
   6   2   6 2.88378 1.56894  -2
  -6  -2  10 2.88378 1.56894   1
   5   2   7 7.49120 1.41700  -2
  -5  -2  10 7.49120 1.41700   1
   4   2   7 183.065 2.83636  -2
  -4  -2  10 183.065 2.83636   1
   3   2   8 21.7627 1.09500  -2
  -3  -2  10 21.7627 1.09500   1
   2   2   8 0.66431 1.76459  -2
  -2  -2  10 0.66431 1.76459   1
   1   2   9 30.5192 1.04871  -2
  -1  -2  10 30.5192 1.04871   1
   0  -2  10 22.7785 0.99224   1
  -1   2  10 6.66490 0.92028  -2
   1  -2  10 6.66490 0.92028   1
  -2   2  11 146.109 2.06058  -2
   2  -2  10 146.109 2.06058   1
  -3   2  11 70.8672 1.44844  -2
   3  -2  10 70.8672 1.44844   1
  -4   2  12 3.79502 1.25238  -2
   4  -2  10 3.79502 1.25238   1
  -5   2  12 128.249 3.85744  -2
   5  -2  10 128.249 3.85744   1
  -6   2  13 18.3040 2.09447  -2
   6  -2  10 18.3040 2.09447   1
   6   1   6 4.44441 2.01728  -2
  -6  -1  10 4.44441 2.01728   1
   5   1   7 30.9958 1.27533  -2
  -5  -1  10 30.9958 1.27533   1
  -4  -1  10 48.3969 1.14277   1
   3   1   8 88.3887 1.38897  -2
  -3  -1  10 88.3887 1.38897   1
   2   1   9 4.73780 1.07381  -2
  -2  -1  10 4.73780 1.07381   1
   1   1   9 77.5900 1.48376  -2
  -1  -1  10 77.5900 1.48376   1
   0   1  10 130.444 1.87677  -2
   0  -1  10 130.444 1.87677   1
  -1   1  10 24.7123 1.16991  -2
   1  -1  10 24.7123 1.16991   1
  -2   1  11 131.415 1.75829  -2
   2  -1  10 131.415 1.75829   1
   3  -1  10 7.06831 0.73205   1
  -4   1  12 33.4463 1.50288  -2
   4  -1  10 33.4463 1.50288   1
  -5   1  13 5.55297 1.89264  -2
   5  -1  10 5.55297 1.89264   1
  -6   1  13 1.99521 1.65916  -2
   6  -1  10 1.99521 1.65916   1
   6   0   7 1.96810 2.37329  -2
  -6   0  10 1.96810 2.37329   1
   5   0   7 81.2546 1.70045  -2
  -5   0  10 81.2546 1.70045   1
   4   0   8 9.66255 1.05590  -2
  -4   0  10 9.66255 1.05590   1
   3   0   8 36.3037 1.11140  -2
  -3   0  10 36.3037 1.11140   1
   2   0   9 307.221 3.41004  -2
  -2   0  10 307.221 3.41004   1
   1   0   9 9.39351 2.48723  -2
  -1   0  10 9.39351 2.48723   1
   0   0  10 0.77062 0.55121  -2
   0   0  10 0.77062 0.55121   1
   1   0  10 117.956 1.61689   1
  -2   0  11 38.6858 0.92825  -2
   2   0  10 38.6858 0.92825   1
  -3   0  12 139.828 1.95837  -2
   3   0  10 139.828 1.95837   1
  -4   0  12 30.3040 1.84381  -2
   4   0  10 30.3040 1.84381   1
  -5   0  13 15.9181 1.49141  -2
   5   0  10 15.9181 1.49141   1
   6   0  10 5.30311 3.65180   1
   7  -1   6 3.25382 2.51062  -2
  -7   1  10 3.25382 2.51062   1
   6  -1   7 55.0264 1.85005  -2
  -6   1  10 55.0264 1.85005   1
   5  -1   7 43.5338 1.47876  -2
  -5   1  10 43.5338 1.47876   1
   4  -1   8 33.5898 1.09442  -2
  -4   1  10 33.5898 1.09442   1
  -3   1  10 8.94207 0.70856   1
   2  -1   9 40.0980 0.96958  -2
  -2   1  10 40.0980 0.96958   1
   1  -1  10 5.10464 1.09859  -2
  -1   1  10 5.10464 1.09859   1
   0  -1  10 114.960 1.74641  -2
   0   1  10 114.960 1.74641   1
  -1  -1  11 42.0453 1.08071  -2
   1   1  10 42.0453 1.08071   1
  -2  -1  11 161.157 2.53173  -2
   2   1  10 161.157 2.53173   1
  -3  -1  12 279.770 3.69744  -2
   3   1  10 279.770 3.69744   1
  -4  -1  13 48.9053 5.73165  -2
   4   1  10 48.9053 5.73165   1
  -5  -1  13 14.1385 1.67804  -2
   5   1  10 14.1385 1.67804   1
   7  -2   6 1.92856 1.80616  -2
  -7   2  10 1.92856 1.80616   1
   6  -2   7 61.2482 1.77401  -2
  -6   2  10 61.2482 1.77401   1
   5  -2   8 34.3383 1.93596  -2
  -5   2  10 34.3383 1.93596   1
   4  -2   8 16.3460 1.17084  -2
  -4   2  10 16.3460 1.17084   1
   3  -2   9 556.054 5.73403  -2
  -3   2  10 556.054 5.73403   1
   2  -2   9 168.519 2.36093  -2
  -2   2  10 168.519 2.36093   1
   1  -2  10 6.99705 0.89212  -2
  -1   2  10 6.99705 0.89212   1
   0   2  10 0.21011 0.46536   1
  -1  -2  11 68.2507 1.01686  -2
   1   2  10 68.2507 1.01686   1
  -2  -2  12 243.514 4.80172  -2
   2   2  10 243.514 4.80172   1
  -3  -2  12 38.0867 1.92834  -2
   3   2  10 38.0867 1.92834   1
  -4  -2  13 39.9677 1.92807  -2
   4   2  10 39.9677 1.92807   1
   7  -3   7 0.13270 1.82176  -2
  -7   3  10 0.13270 1.82176   1
   6  -3   7 56.2316 2.11932  -2
  -6   3  10 56.2316 2.11932   1
   5  -3   8 26.3092 1.43283  -2
  -5   3  10 26.3092 1.43283   1
   4  -3   8 7.21588 1.56065  -2
  -4   3  10 7.21588 1.56065   1
   3  -3   9 165.561 2.22818  -2
  -3   3  10 165.561 2.22818   1
  -2   3  10 11.9505 0.77430   1
   1  -3  10 88.1352 1.59769  -2
  -1   3  10 88.1352 1.59769   1
   0  -3  11 53.5620 1.28472  -2
   0   3  10 53.5620 1.28472   1
  -1  -3  11 4.19104 1.03847  -2
   1   3  10 4.19104 1.03847   1
  -2  -3  12 39.0174 1.47708  -2
   2   3  10 39.0174 1.47708   1
  -3  -3  12 1.64913 1.59798  -2
   3   3  10 1.64913 1.59798   1
  -4  -3  13 72.0488 1.82697  -2
   4   3  10 72.0488 1.82697   1
   7  -4   7 14.7330 1.53593  -2
  -7   4  10 14.7330 1.53593   1
  -6   4  10 28.4299 1.32099   1
   5  -4   8 58.2306 1.58238  -2
  -5   4  10 58.2306 1.58238   1
   4  -4   9 36.3650 1.81987  -2
  -4   4  10 36.3650 1.81987   1
   3  -4   9 19.8085 1.37716  -2
  -3   4  10 19.8085 1.37716   1
   2  -4  10 37.8867 1.45679  -2
  -2   4  10 37.8867 1.45679   1
   1  -4  10 40.9925 1.28889  -2
  -1   4  10 40.9925 1.28889   1
   0  -4  11 11.3693 0.87829  -2
   0   4  10 11.3693 0.87829   1
  -1  -4  11 17.0384 2.85897  -2
   1   4  10 17.0384 2.85897   1
  -2  -4  12 35.1360 1.70898  -2
   2   4  10 35.1360 1.70898   1
  -3  -4  13 10.7883 2.16160  -2
   3   4  10 10.7883 2.16160   1
  -4  -4  13 24.9232 4.82429  -2
   4   4  10 24.9232 4.82429   1
   6  -5   8 16.9847 1.70136  -2
  -6   5  10 16.9847 1.70136   1
   5  -5   8 134.703 2.72238  -2
  -5   5  10 134.703 2.72238   1
   4  -5   9 61.9619 1.88270  -2
  -4   5  10 61.9619 1.88270   1
   3  -5   9 6.79074 2.22411  -2
  -3   5  10 6.79074 2.22411   1
   2  -5  10 5.71030 0.88704  -2
  -2   5  10 5.71030 0.88704   1
   1  -5  11 2.80668 1.58639  -2
  -1   5  10 2.80668 1.58639   1
   0  -5  11 29.2199 1.33454  -2
   0   5  10 29.2199 1.33454   1
  -1  -5  12 43.5588 1.61810  -2
   1   5  10 43.5588 1.61810   1
  -2  -5  12 4.63573 2.05324  -2
   2   5  10 4.63573 2.05324   1
  -3  -5  13 6.76054 2.04276  -2
   3   5  10 6.76054 2.04276   1
   6  -6   8 22.1871 1.35066  -2
  -6   6  10 22.1871 1.35066   1
   5  -6   8 137.428 6.07498  -2
  -5   6  10 137.428 6.07498   1
   4  -6   9 0.92567 1.22793  -2
  -4   6  10 0.92567 1.22793   1
   3  -6  10 -0.0279 1.60215  -2
  -3   6  10 -0.0279 1.60215   1
   2  -6  10 9.61395 1.46864  -2
  -2   6  10 9.61395 1.46864   1
   1  -6  11 37.5519 1.45871  -2
  -1   6  10 37.5519 1.45871   1
   0  -6  11 20.4258 1.65744  -2
   0   6  10 20.4258 1.65744   1
  -1  -6  12 9.86291 1.57272  -2
   1   6  10 9.86291 1.57272   1
   2   6  10 15.1230 3.30522   1
   5  -7   9 6.92495 1.81990  -2
  -5   7  10 6.92495 1.81990   1
   4  -7   9 89.0112 2.50188  -2
  -4   7  10 89.0112 2.50188   1
   3  -7  10 5.55923 1.43934  -2
  -3   7  10 5.55923 1.43934   1
   2  -7  10 46.4221 4.19325  -2
  -2   7  10 46.4221 4.19325   1
   1  -7  11 46.0965 1.62533  -2
  -1   7  10 46.0965 1.62533   1
   0  -7  12 15.5163 2.00075  -2
   0   7  10 15.5163 2.00075   1
   3  -8  10 18.5176 1.64349  -2
  -3   8  10 18.5176 1.64349   1
  -2   8  10 63.8623 2.23743   1
   1   7   9 14.5887 2.25191  -2
  -1  -7  11 14.5887 2.25191   1
   0   7   9 16.5816 2.83831  -2
   0  -7  11 16.5816 2.83831   1
  -1   7  10 10.8442 1.40465  -2
   1  -7  11 10.8442 1.40465   1
  -2   7  11 14.1518 2.89910  -2
   2  -7  11 14.1518 2.89910   1
  -3   7  11 0.06796 1.65181  -2
   3  -7  11 0.06796 1.65181   1
  -4   7  12 6.91118 2.08968  -2
   4  -7  11 6.91118 2.08968   1
  -2  -6  11 21.7710 1.49018   1
   1   6   9 8.86194 1.27910  -2
  -1  -6  11 8.86194 1.27910   1
   0   6  10 29.5963 2.18392  -2
   0  -6  11 29.5963 2.18392   1
  -1   6  10 19.8608 1.85722  -2
   1  -6  11 19.8608 1.85722   1
  -2   6  11 2.51280 1.73323  -2
   2  -6  11 2.51280 1.73323   1
  -3   6  11 12.4907 2.00021  -2
   3  -6  11 12.4907 2.00021   1
  -4   6  12 11.5279 1.43311  -2
   4  -6  11 11.5279 1.43311   1
  -5   6  12 16.3523 5.66838  -2
   5  -6  11 16.3523 5.66838   1
   3   5   8 -0.2206 1.34826  -2
  -3  -5  11 -0.2206 1.34826   1
   2   5   9 15.5282 1.64663  -2
  -2  -5  11 15.5282 1.64663   1
   1   5   9 22.4477 1.60142  -2
  -1  -5  11 22.4477 1.60142   1
   0   5  10 4.25994 1.43734  -2
   0  -5  11 4.25994 1.43734   1
  -1   5  10 -2.7840 3.27165  -2
   1  -5  11 -2.7840 3.27165   1
  -2   5  11 61.3806 1.88670  -2
   2  -5  11 61.3806 1.88670   1
  -3   5  12 32.7329 2.65737  -2
   3  -5  11 32.7329 2.65737   1
  -4   5  12 9.66557 1.38619  -2
   4  -5  11 9.66557 1.38619   1
  -5   5  13 21.4769 2.17235  -2
   5  -5  11 21.4769 2.17235   1
   4   4   8 0.64111 1.49832  -2
  -4  -4  11 0.64111 1.49832   1
   3   4   8 10.9031 2.07499  -2
  -3  -4  11 10.9031 2.07499   1
   2   4   9 15.0526 1.17215  -2
  -2  -4  11 15.0526 1.17215   1
  -1  -4  11 32.3341 1.31176   1
   0   4  10 4.87571 1.01248  -2
   0  -4  11 4.87571 1.01248   1
  -1   4  11 14.1623 1.66045  -2
   1  -4  11 14.1623 1.66045   1
  -2   4  11 51.2068 1.88524  -2
   2  -4  11 51.2068 1.88524   1
  -3   4  12 13.7585 1.39819  -2
   3  -4  11 13.7585 1.39819   1
  -4   4  12 32.6672 2.13858  -2
   4  -4  11 32.6672 2.13858   1
  -5   4  13 21.0589 1.54924  -2
   5  -4  11 21.0589 1.54924   1
   6  -4  11 52.7805 5.11527   1
  -5  -3  11 -0.1922 0.92760   1
   4   3   8 5.45223 1.17701  -2
  -4  -3  11 5.45223 1.17701   1
   3   3   9 22.7532 1.76334  -2
  -3  -3  11 22.7532 1.76334   1
   2   3   9 61.1163 1.69050  -2
  -2  -3  11 61.1163 1.69050   1
   1   3  10 9.50991 1.13257  -2
  -1  -3  11 9.50991 1.13257   1
   0   3  10 40.0617 1.53376  -2
   0  -3  11 40.0617 1.53376   1
  -1   3  11 178.645 2.59855  -2
   1  -3  11 178.645 2.59855   1
   2  -3  11 31.1570 1.17173   1
  -3   3  12 31.6653 1.18932  -2
   3  -3  11 31.6653 1.18932   1
  -4   3  13 16.1767 1.83669  -2
   4  -3  11 16.1767 1.83669   1
  -5   3  13 3.59965 2.26967  -2
   5  -3  11 3.59965 2.26967   1
  -6   3  14 18.7170 2.81969  -2
   6  -3  11 18.7170 2.81969   1
   5   2   8 7.37992 1.47156  -2
  -5  -2  11 7.37992 1.47156   1
   4   2   8 44.0995 1.68382  -2
  -4  -2  11 44.0995 1.68382   1
   3   2   9 63.5745 1.47288  -2
  -3  -2  11 63.5745 1.47288   1
   2   2   9 71.3907 2.06198  -2
  -2  -2  11 71.3907 2.06198   1
   1   2  10 60.4822 1.39188  -2
  -1  -2  11 60.4822 1.39188   1
   0  -2  11 27.2653 1.09068   1
  -1   2  11 9.30218 1.01952  -2
   1  -2  11 9.30218 1.01952   1
  -2   2  12 43.9008 1.30519  -2
   2  -2  11 43.9008 1.30519   1
  -3   2  12 29.5767 1.17060  -2
   3  -2  11 29.5767 1.17060   1
  -4   2  13 194.443 3.31573  -2
   4  -2  11 194.443 3.31573   1
  -5   2  13 25.6042 2.72897  -2
   5  -2  11 25.6042 2.72897   1
  -6   2  14 -1.8630 1.86877  -2
   6  -2  11 -1.8630 1.86877   1
   6   1   7 12.5888 2.08675  -2
  -6  -1  11 12.5888 2.08675   1
   5   1   8 4.55208 1.02804  -2
  -5  -1  11 4.55208 1.02804   1
  -4  -1  11 1.48034 0.63384   1
   3   1   9 164.063 2.02861  -2
  -3  -1  11 164.063 2.02861   1
   2   1  10 41.8403 1.54480  -2
  -2  -1  11 41.8403 1.54480   1
   1   1  10 138.551 2.04524  -2
  -1  -1  11 138.551 2.04524   1
   0   1  11 21.8143 1.11353  -2
   0  -1  11 21.8143 1.11353   1
  -1   1  11 330.651 3.61835  -2
   1  -1  11 330.651 3.61835   1
  -2   1  12 17.3780 0.87730  -2
   2  -1  11 17.3780 0.87730   1
   3  -1  11 125.967 2.01868   1
  -4   1  13 173.950 2.81525  -2
   4  -1  11 173.950 2.81525   1
  -5   1  14 12.8286 2.02173  -2
   5  -1  11 12.8286 2.02173   1
  -6   1  14 1.57194 1.66888  -2
   6  -1  11 1.57194 1.66888   1
   6   0   8 15.3636 2.59388  -2
  -6   0  11 15.3636 2.59388   1
   5   0   8 17.6403 1.43511  -2
  -5   0  11 17.6403 1.43511   1
   4   0   9 74.9261 1.75628  -2
  -4   0  11 74.9261 1.75628   1
   3   0   9 7.19402 0.94960  -2
  -3   0  11 7.19402 0.94960   1
   2   0  10 190.700 2.30822  -2
  -2   0  11 190.700 2.30822   1
   1   0  10 309.914 5.36075  -2
  -1   0  11 309.914 5.36075   1
   0   0  11 70.9596 1.31449  -2
   0   0  11 70.9596 1.31449   1
  -1   0  12 85.9693 3.32234  -2
   1   0  11 85.9693 3.32234   1
  -2   0  12 72.8672 1.32301  -2
   2   0  11 72.8672 1.32301   1
  -3   0  13 141.946 2.06390  -2
   3   0  11 141.946 2.06390   1
  -4   0  13 45.5088 2.07457  -2
   4   0  11 45.5088 2.07457   1
  -5   0  14 11.8349 1.53280  -2
   5   0  11 11.8349 1.53280   1
   6  -1   8 23.0201 1.65904  -2
  -6   1  11 23.0201 1.65904   1
   5  -1   8 84.3755 1.95821  -2
  -5   1  11 84.3755 1.95821   1
   4  -1   9 155.927 2.25809  -2
  -4   1  11 155.927 2.25809   1
   3  -1   9 56.1460 3.71862  -2
  -3   1  11 56.1460 3.71862   1
   2  -1  10 391.455 3.93286  -2
  -2   1  11 391.455 3.93286   1
   1  -1  11 68.4246 1.58567  -2
  -1   1  11 68.4246 1.58567   1
   0  -1  11 62.5519 1.42011  -2
   0   1  11 62.5519 1.42011   1
  -1  -1  12 63.2418 1.31781  -2
   1   1  11 63.2418 1.31781   1
  -2  -1  12 90.0082 1.81071  -2
   2   1  11 90.0082 1.81071   1
  -3  -1  13 3.65651 1.13874  -2
   3   1  11 3.65651 1.13874   1
   4   1  11 23.6065 1.44047   1
  -5  -1  14 16.1390 1.61393  -2
   5   1  11 16.1390 1.61393   1
   7  -2   7 17.8758 3.43292  -2
  -7   2  11 17.8758 3.43292   1
   6  -2   8 6.35467 1.28297  -2
  -6   2  11 6.35467 1.28297   1
   5  -2   9 15.3310 1.83498  -2
  -5   2  11 15.3310 1.83498   1
   4  -2   9 124.704 2.12091  -2
  -4   2  11 124.704 2.12091   1
   3  -2  10 39.5495 1.47412  -2
  -3   2  11 39.5495 1.47412   1
   2  -2  10 29.4272 1.34927  -2
  -2   2  11 29.4272 1.34927   1
   1  -2  11 45.3657 1.27039  -2
  -1   2  11 45.3657 1.27039   1
   0   2  11 73.7323 1.36598   1
  -1  -2  12 14.4741 0.71862  -2
   1   2  11 14.4741 0.71862   1
  -2  -2  13 12.6276 2.08528  -2
   2   2  11 12.6276 2.08528   1
  -3  -2  13 16.8893 1.84744  -2
   3   2  11 16.8893 1.84744   1
  -4  -2  14 10.2205 1.81305  -2
   4   2  11 10.2205 1.81305   1
   7  -3   8 2.28876 1.89128  -2
  -7   3  11 2.28876 1.89128   1
   6  -3   8 22.7686 1.82728  -2
  -6   3  11 22.7686 1.82728   1
   5  -3   9 36.5046 1.57411  -2
  -5   3  11 36.5046 1.57411   1
   4  -3   9 421.882 4.83905  -2
  -4   3  11 421.882 4.83905   1
   3  -3  10 24.0821 1.23380  -2
  -3   3  11 24.0821 1.23380   1
  -2   3  11 0.27101 0.59187   1
   1  -3  11 91.8183 1.68369  -2
  -1   3  11 91.8183 1.68369   1
   0  -3  12 29.4153 1.29494  -2
   0   3  11 29.4153 1.29494   1
  -1  -3  12 4.47430 1.11866  -2
   1   3  11 4.47430 1.11866   1
  -2  -3  13 47.8040 1.75636  -2
   2   3  11 47.8040 1.75636   1
  -3  -3  13 11.6154 2.01186  -2
   3   3  11 11.6154 2.01186   1
  -4  -3  14 0.44711 1.21274  -2
   4   3  11 0.44711 1.21274   1
   6  -4   8 24.2081 3.84482  -2
  -6   4  11 24.2081 3.84482   1
   5  -4   9 42.2801 1.47868  -2
  -5   4  11 42.2801 1.47868   1
   4  -4  10 158.704 2.91579  -2
  -4   4  11 158.704 2.91579   1
   3  -4  10 10.0322 1.41225  -2
  -3   4  11 10.0322 1.41225   1
   2  -4  11 10.4621 1.31020  -2
  -2   4  11 10.4621 1.31020   1
   1  -4  11 25.0744 1.24677  -2
  -1   4  11 25.0744 1.24677   1
   0  -4  12 3.96749 0.83149  -2
   0   4  11 3.96749 0.83149   1
  -1  -4  12 20.0467 2.11346  -2
   1   4  11 20.0467 2.11346   1
  -2  -4  13 9.23067 1.44813  -2
   2   4  11 9.23067 1.44813   1
  -3  -4  14 45.8392 2.78588  -2
   3   4  11 45.8392 2.78588   1
   6  -5   9 27.9264 1.87833  -2
  -6   5  11 27.9264 1.87833   1
   5  -5   9 43.4005 2.00011  -2
  -5   5  11 43.4005 2.00011   1
   4  -5  10 24.9296 1.56916  -2
  -4   5  11 24.9296 1.56916   1
   3  -5  10 49.4680 2.36177  -2
  -3   5  11 49.4680 2.36177   1
   2  -5  11 15.4104 1.15935  -2
  -2   5  11 15.4104 1.15935   1
   1  -5  12 54.2998 1.80739  -2
  -1   5  11 54.2998 1.80739   1
   0  -5  12 45.4032 1.50382  -2
   0   5  11 45.4032 1.50382   1
  -1  -5  13 61.4064 1.82960  -2
   1   5  11 61.4064 1.82960   1
  -2  -5  13 5.69910 2.26496  -2
   2   5  11 5.69910 2.26496   1
   6  -6   9 11.5424 1.41932  -2
  -6   6  11 11.5424 1.41932   1
   5  -6  10 13.5832 2.97653  -2
  -5   6  11 13.5832 2.97653   1
   5  -6   9 32.6155 4.43428  -2
  -5   6  11 32.6155 4.43428   1
   4  -6  10 8.22624 1.42302  -2
  -4   6  11 8.22624 1.42302   1
   3  -6  11 22.9658 1.79288  -2
  -3   6  11 22.9658 1.79288   1
   2  -6  11 0.50148 1.50492  -2
  -2   6  11 0.50148 1.50492   1
   1  -6  12 15.4028 1.76953  -2
  -1   6  11 15.4028 1.76953   1
   0  -6  12 10.7726 1.69401  -2
   0   6  11 10.7726 1.69401   1
  -1  -6  13 19.2684 2.18925  -2
   1   6  11 19.2684 2.18925   1
   5  -7  10 5.62052 1.85411  -2
  -5   7  11 5.62052 1.85411   1
   4  -7  10 18.6276 1.89492  -2
  -4   7  11 18.6276 1.89492   1
   3  -7  11 -2.5470 1.41880  -2
  -3   7  11 -2.5470 1.41880   1
   2  -7  11 7.95917 3.73432  -2
  -2   7  11 7.95917 3.73432   1
   1  -7  12 6.88944 1.46395  -2
  -1   7  11 6.88944 1.46395   1
   0   7  11 19.3175 1.55693   1
   0   7  10 6.44459 2.91076  -2
   0  -7  12 6.44459 2.91076   1
  -1   7  11 24.5184 1.71393  -2
   1  -7  12 24.5184 1.71393   1
  -2   7  12 -0.9773 2.83764  -2
   2  -7  12 -0.9773 2.83764   1
  -3   7  12 7.00762 1.78812  -2
   3  -7  12 7.00762 1.78812   1
  -2  -6  12 10.3590 1.24201   1
   1   6  10 29.7656 1.74850  -2
  -1  -6  12 29.7656 1.74850   1
   0   6  11 5.49997 2.04280  -2
   0  -6  12 5.49997 2.04280   1
  -1   6  11 12.9570 1.82281  -2
   1  -6  12 12.9570 1.82281   1
  -2   6  12 8.13020 1.83584  -2
   2  -6  12 8.13020 1.83584   1
  -3   6  12 44.1914 2.36838  -2
   3  -6  12 44.1914 2.36838   1
  -4   6  13 6.06991 1.41733  -2
   4  -6  12 6.06991 1.41733   1
   3   5   9 47.3934 1.91054  -2
  -3  -5  12 47.3934 1.91054   1
   2   5  10 4.90647 1.62037  -2
  -2  -5  12 4.90647 1.62037   1
   1   5  10 15.5085 1.44273  -2
  -1  -5  12 15.5085 1.44273   1
   0   5  11 8.27576 1.51712  -2
   0  -5  12 8.27576 1.51712   1
  -1   5  11 22.6022 3.71165  -2
   1  -5  12 22.6022 3.71165   1
  -2   5  12 15.1330 1.38130  -2
   2  -5  12 15.1330 1.38130   1
  -3   5  13 1.50971 2.45328  -2
   3  -5  12 1.50971 2.45328   1
  -4   5  13 7.01434 1.77907  -2
   4  -5  12 7.01434 1.77907   1
  -5   5  14 3.73388 2.33808  -2
   5  -5  12 3.73388 2.33808   1
   4   4   9 4.08852 1.57894  -2
  -4  -4  12 4.08852 1.57894   1
   3   4   9 12.9405 2.10705  -2
  -3  -4  12 12.9405 2.10705   1
   2   4  10 156.825 2.62815  -2
  -2  -4  12 156.825 2.62815   1
  -1  -4  12 13.5106 1.09446   1
   0   4  11 9.43389 1.07600  -2
   0  -4  12 9.43389 1.07600   1
  -1   4  12 20.9705 1.78575  -2
   1  -4  12 20.9705 1.78575   1
  -2   4  12 6.01731 1.47937  -2
   2  -4  12 6.01731 1.47937   1
  -3   4  13 6.12764 1.48518  -2
   3  -4  12 6.12764 1.48518   1
  -4   4  13 22.3511 2.19133  -2
   4  -4  12 22.3511 2.19133   1
  -5   4  14 52.5412 1.92262  -2
   5  -4  12 52.5412 1.92262   1
  -5  -3  12 0.48352 0.98437   1
   4   3   9 29.8452 1.46973  -2
  -4  -3  12 29.8452 1.46973   1
   3   3  10 4.57399 1.72638  -2
  -3  -3  12 4.57399 1.72638   1
   2   3  10 83.9766 1.98719  -2
  -2  -3  12 83.9766 1.98719   1
   1   3  11 5.03294 1.29341  -2
  -1  -3  12 5.03294 1.29341   1
   0   3  11 152.201 2.57952  -2
   0  -3  12 152.201 2.57952   1
  -1   3  12 25.3576 1.28143  -2
   1  -3  12 25.3576 1.28143   1
   2  -3  12 59.5633 1.36409   1
  -3   3  13 7.05861 1.00281  -2
   3  -3  12 7.05861 1.00281   1
  -4   3  14 29.1009 2.32432  -2
   4  -3  12 29.1009 2.32432   1
  -5   3  14 72.7681 3.21211  -2
   5  -3  12 72.7681 3.21211   1
   5   2   9 8.05093 2.08958  -2
  -5  -2  12 8.05093 2.08958   1
   4   2   9 13.6376 1.30070  -2
  -4  -2  12 13.6376 1.30070   1
   3   2  10 74.8205 1.62267  -2
  -3  -2  12 74.8205 1.62267   1
   2   2  10 82.6063 2.30745  -2
  -2  -2  12 82.6063 2.30745   1
   1   2  11 9.58557 0.96095  -2
  -1  -2  12 9.58557 0.96095   1
   0  -2  12 16.7210 0.98199   1
  -1   2  12 48.2333 1.41775  -2
   1  -2  12 48.2333 1.41775   1
  -2   2  13 45.3976 1.53371  -2
   2  -2  12 45.3976 1.53371   1
  -3   2  13 10.5921 1.33839  -2
   3  -2  12 10.5921 1.33839   1
  -4   2  14 36.2800 1.65755  -2
   4  -2  12 36.2800 1.65755   1
  -5   2  14 -4.5463 4.74702  -2
   5  -2  12 -4.5463 4.74702   1
   6   1   8 1.33909 2.03296  -2
  -6  -1  12 1.33909 2.03296   1
   5   1   9 14.2888 1.40291  -2
  -5  -1  12 14.2888 1.40291   1
   4   1   9 7.88463 4.14971  -2
  -4  -1  12 7.88463 4.14971   1
   3   1  10 116.650 1.70170  -2
  -3  -1  12 116.650 1.70170   1
   2   1  11 40.4827 1.65175  -2
  -2  -1  12 40.4827 1.65175   1
   1   1  11 337.182 3.79605  -2
  -1  -1  12 337.182 3.79605   1
   0   1  12 29.1479 1.24387  -2
   0  -1  12 29.1479 1.24387   1
  -1   1  12 67.3097 1.58104  -2
   1  -1  12 67.3097 1.58104   1
  -2   1  13 58.6267 1.27804  -2
   2  -1  12 58.6267 1.27804   1
   3  -1  12 19.7926 1.01057   1
  -4   1  14 -0.9825 1.19183  -2
   4  -1  12 -0.9825 1.19183   1
  -5   1  15 97.9339 2.96885  -2
   5  -1  12 97.9339 2.96885   1
   6   0   9 4.07097 2.39143  -2
  -6   0  12 4.07097 2.39143   1
   5   0   9 6.92935 1.38521  -2
  -5   0  12 6.92935 1.38521   1
   4   0  10 41.0911 1.57804  -2
  -4   0  12 41.0911 1.57804   1
   3   0  10 80.4412 1.77948  -2
  -3   0  12 80.4412 1.77948   1
   2   0  11 16.4952 1.25133  -2
  -2   0  12 16.4952 1.25133   1
   1   0  11 355.381 8.60004  -2
  -1   0  12 355.381 8.60004   1
   0   0  12 8.26705 0.75688  -2
   0   0  12 8.26705 0.75688   1
  -1   0  13 138.423 3.24881  -2
   1   0  12 138.423 3.24881   1
  -2   0  13 77.9553 1.43226  -2
   2   0  12 77.9553 1.43226   1
  -3   0  14 16.5352 1.28815  -2
   3   0  12 16.5352 1.28815   1
  -4   0  14 0.94173 1.74793  -2
   4   0  12 0.94173 1.74793   1
  -5   0  15 1.07054 1.56264  -2
   5   0  12 1.07054 1.56264   1
   6  -1   9 0.25780 1.54542  -2
  -6   1  12 0.25780 1.54542   1
   5  -1   9 4.98164 1.45578  -2
  -5   1  12 4.98164 1.45578   1
   4  -1  10 12.4480 1.07819  -2
  -4   1  12 12.4480 1.07819   1
   3  -1  10 597.671 13.0884  -2
  -3   1  12 597.671 13.0884   1
   2  -1  11 17.3422 0.96595  -2
  -2   1  12 17.3422 0.96595   1
   1  -1  12 56.8532 1.58253  -2
  -1   1  12 56.8532 1.58253   1
   0  -1  12 43.0321 1.34413  -2
   0   1  12 43.0321 1.34413   1
  -1  -1  13 16.2124 1.04778  -2
   1   1  12 16.2124 1.04778   1
  -2  -1  13 34.1866 1.42375  -2
   2   1  12 34.1866 1.42375   1
  -3  -1  14 87.3371 2.09272  -2
   3   1  12 87.3371 2.09272   1
   4   1  12 8.85379 1.21119   1
  -5  -1  15 23.7383 1.84231  -2
   5   1  12 23.7383 1.84231   1
   6  -2   9 1.44817 1.28470  -2
  -6   2  12 1.44817 1.28470   1
   5  -2  10 32.2958 1.98694  -2
  -5   2  12 32.2958 1.98694   1
   4  -2  10 3.97470 1.20366  -2
  -4   2  12 3.97470 1.20366   1
   3  -2  11 131.690 2.24220  -2
  -3   2  12 131.690 2.24220   1
   2  -2  11 9.76196 1.32053  -2
  -2   2  12 9.76196 1.32053   1
   1  -2  12 17.8484 1.11741  -2
  -1   2  12 17.8484 1.11741   1
   0  -2  12 12.2700 2.78505  -2
   0   2  12 12.2700 2.78505   1
  -1  -2  13 27.9177 0.97000  -2
   1   2  12 27.9177 0.97000   1
  -2  -2  14 47.9058 1.55426  -2
   2   2  12 47.9058 1.55426   1
  -3  -2  14 10.1174 1.87145  -2
   3   2  12 10.1174 1.87145   1
  -4  -2  15 10.0333 1.93974  -2
   4   2  12 10.0333 1.93974   1
   6  -3   9 30.3830 1.97189  -2
  -6   3  12 30.3830 1.97189   1
   5  -3  10 58.9139 1.78689  -2
  -5   3  12 58.9139 1.78689   1
   4  -3  10 171.232 2.81168  -2
  -4   3  12 171.232 2.81168   1
   3  -3  11 44.3386 1.48376  -2
  -3   3  12 44.3386 1.48376   1
  -2   3  12 18.4149 1.08805   1
   1  -3  12 7.17906 1.07167  -2
  -1   3  12 7.17906 1.07167   1
   0  -3  13 124.625 2.09157  -2
   0   3  12 124.625 2.09157   1
  -1  -3  13 4.36634 1.27548  -2
   1   3  12 4.36634 1.27548   1
  -2  -3  14 1.71397 1.43105  -2
   2   3  12 1.71397 1.43105   1
  -3  -3  14 7.68889 2.11842  -2
   3   3  12 7.68889 2.11842   1
  -4  -3  15 12.7830 1.45015  -2
   4   3  12 12.7830 1.45015   1
   6  -4   9 8.61919 3.67224  -2
  -6   4  12 8.61919 3.67224   1
   5  -4  10 2.87853 1.06730  -2
  -5   4  12 2.87853 1.06730   1
   4  -4  11 6.85311 1.78751  -2
  -4   4  12 6.85311 1.78751   1
   3  -4  11 65.3522 1.94306  -2
  -3   4  12 65.3522 1.94306   1
   2  -4  12 32.0626 1.60668  -2
  -2   4  12 32.0626 1.60668   1
   1  -4  12 17.5192 1.48004  -2
  -1   4  12 17.5192 1.48004   1
   0  -4  13 29.8991 1.26379  -2
   0   4  12 29.8991 1.26379   1
  -1  -4  13 3.73661 2.97232  -2
   1   4  12 3.73661 2.97232   1
  -1  -4  14 2.36047 2.69910  -2
   1   4  12 2.36047 2.69910   1
  -2  -4  14 2.33845 1.45317  -2
   2   4  12 2.33845 1.45317   1
  -3  -4  15 1.17075 2.85576  -2
   3   4  12 1.17075 2.85576   1
   6  -5  10 6.95975 1.79003  -2
  -6   5  12 6.95975 1.79003   1
   5  -5  10 0.68385 1.68363  -2
  -5   5  12 0.68385 1.68363   1
   4  -5  11 6.51244 1.49186  -2
  -4   5  12 6.51244 1.49186   1
   3  -5  11 89.3166 2.41741  -2
  -3   5  12 89.3166 2.41741   1
   2  -5  12 69.3280 1.75591  -2
  -2   5  12 69.3280 1.75591   1
   1  -5  13 34.0785 1.92934  -2
  -1   5  12 34.0785 1.92934   1
   0  -5  13 0.47908 1.18918  -2
   0   5  12 0.47908 1.18918   1
  -1  -5  14 5.70600 1.62099  -2
   1   5  12 5.70600 1.62099   1
  -2  -5  14 1.78587 2.18853  -2
   2   5  12 1.78587 2.18853   1
   5  -6  11 3.28334 4.11312  -2
  -5   6  12 3.28334 4.11312   1
   4  -6  11 7.40546 1.38694  -2
  -4   6  12 7.40546 1.38694   1
   3  -6  12 32.8545 1.99145  -2
  -3   6  12 32.8545 1.99145   1
   2  -6  12 4.58980 1.52357  -2
  -2   6  12 4.58980 1.52357   1
   1  -6  13 20.1950 1.81280  -2
  -1   6  12 20.1950 1.81280   1
   0  -6  13 42.1349 1.95919  -2
   0   6  12 42.1349 1.95919   1
  -1  -6  14 3.53299 1.92881  -2
   1   6  12 3.53299 1.92881   1
   4  -7  11 22.8330 2.02232  -2
  -4   7  12 22.8330 2.02232   1
   3  -7  12 6.36647 1.51574  -2
  -3   7  12 6.36647 1.51574   1
   1  -7  13 4.24882 1.46687  -2
  -1   7  12 4.24882 1.46687   1
  -1   7  12 7.46484 1.50142  -2
   1  -7  13 7.46484 1.50142   1
   2  -7  13 15.0250 1.60736   1
  -2  -6  13 3.57457 2.71497   1
   1   6  11 32.7127 1.86397  -2
  -1  -6  13 32.7127 1.86397   1
   0   6  12 8.93808 2.09286  -2
   0  -6  13 8.93808 2.09286   1
  -1   6  12 23.3709 1.98097  -2
   1  -6  13 23.3709 1.98097   1
  -2   6  13 31.3429 2.09353  -2
   2  -6  13 31.3429 2.09353   1
  -3   6  13 8.57700 2.09411  -2
   3  -6  13 8.57700 2.09411   1
  -4   6  14 -0.7415 1.90939  -2
   4  -6  13 -0.7415 1.90939   1
   3   5  10 36.0090 1.83543  -2
  -3  -5  13 36.0090 1.83543   1
   2   5  11 5.99687 1.66814  -2
  -2  -5  13 5.99687 1.66814   1
   1   5  11 98.4625 2.75171  -2
  -1  -5  13 98.4625 2.75171   1
   0   5  12 0.57406 1.50600  -2
   0  -5  13 0.57406 1.50600   1
  -1   5  12 174.154 6.49001  -2
   1  -5  13 174.154 6.49001   1
  -2   5  13 18.2483 1.48518  -2
   2  -5  13 18.2483 1.48518   1
  -3   5  14 21.9400 2.76260  -2
   3  -5  13 21.9400 2.76260   1
  -4   5  14 7.84043 2.12494  -2
   4  -5  13 7.84043 2.12494   1
   5  -5  13 15.3121 2.38526   1
   4   4  10 34.9761 1.91639  -2
  -4  -4  13 34.9761 1.91639   1
   3   4  10 8.49454 2.17918  -2
  -3  -4  13 8.49454 2.17918   1
   2   4  11 34.6651 1.49060  -2
  -2  -4  13 34.6651 1.49060   1
  -1  -4  13 20.8657 1.29960   1
   0   4  12 34.3025 1.70618  -2
   0  -4  13 34.3025 1.70618   1
  -1   4  13 25.2667 1.90826  -2
   1  -4  13 25.2667 1.90826   1
  -2   4  13 65.2549 2.13191  -2
   2  -4  13 65.2549 2.13191   1
  -3   4  14 10.2297 1.59161  -2
   3  -4  13 10.2297 1.59161   1
  -4   4  14 7.78794 2.37612  -2
   4  -4  13 7.78794 2.37612   1
  -5   4  15 11.5318 1.70852  -2
   5  -4  13 11.5318 1.70852   1
   4   3  10 15.9472 1.36582  -2
  -4  -3  13 15.9472 1.36582   1
   3   3  11 52.6740 1.86930  -2
  -3  -3  13 52.6740 1.86930   1
   2   3  11 37.0213 1.40724  -2
  -2  -3  13 37.0213 1.40724   1
   1   3  12 1.00618 1.33434  -2
  -1  -3  13 1.00618 1.33434   1
   0   3  12 107.667 2.25243  -2
   0  -3  13 107.667 2.25243   1
  -1   3  13 14.6717 1.24053  -2
   1  -3  13 14.6717 1.24053   1
   2  -3  13 166.538 2.57790   1
  -3   3  14 39.4917 1.52500  -2
   3  -3  13 39.4917 1.52500   1
  -4   3  15 12.9115 2.27509  -2
   4  -3  13 12.9115 2.27509   1
  -5   3  15 3.44434 2.83725  -2
   5  -3  13 3.44434 2.83725   1
   5   2  10 2.76631 2.06280  -2
  -5  -2  13 2.76631 2.06280   1
   4   2  10 8.64848 1.36549  -2
  -4  -2  13 8.64848 1.36549   1
   3   2  11 7.57342 1.15887  -2
  -3  -2  13 7.57342 1.15887   1
   2   2  11 7.97809 2.15467  -2
  -2  -2  13 7.97809 2.15467   1
   1   2  12 12.9038 1.07470  -2
  -1  -2  13 12.9038 1.07470   1
   0  -2  13 318.077 3.69887   1
  -1   2  13 30.2652 1.35282  -2
   1  -2  13 30.2652 1.35282   1
  -2   2  14 39.9075 1.55402  -2
   2  -2  13 39.9075 1.55402   1
  -3   2  14 10.9282 1.54779  -2
   3  -2  13 10.9282 1.54779   1
  -4   2  15 15.7240 1.80740  -2
   4  -2  13 15.7240 1.80740   1
  -5   2  15 8.32837 3.29316  -2
   5  -2  13 8.32837 3.29316   1
   5   1  10 3.85225 1.40072  -2
  -5  -1  13 3.85225 1.40072   1
   4   1  10 41.9418 4.79036  -2
  -4  -1  13 41.9418 4.79036   1
   3   1  11 2.13665 0.90541  -2
  -3  -1  13 2.13665 0.90541   1
   2   1  12 130.985 2.46845  -2
  -2  -1  13 130.985 2.46845   1
   1   1  12 66.9245 1.76694  -2
  -1  -1  13 66.9245 1.76694   1
   0   1  13 20.4857 1.28252  -2
   0  -1  13 20.4857 1.28252   1
  -1   1  13 17.9078 1.33102  -2
   1  -1  13 17.9078 1.33102   1
  -2   1  14 18.8532 1.00877  -2
   2  -1  13 18.8532 1.00877   1
   3  -1  13 0.85102 0.78174   1
  -4   1  15 7.05240 1.81564  -2
   4  -1  13 7.05240 1.81564   1
  -5   1  16 6.23531 2.41731  -2
   5  -1  13 6.23531 2.41731   1
   6   0  10 15.4476 2.85369  -2
  -6   0  13 15.4476 2.85369   1
   5   0  10 9.87356 1.50703  -2
  -5   0  13 9.87356 1.50703   1
   4   0  11 8.14002 1.39319  -2
  -4   0  13 8.14002 1.39319   1
   3   0  11 27.4048 1.41436  -2
  -3   0  13 27.4048 1.41436   1
   2   0  12 151.654 2.51130  -2
  -2   0  13 151.654 2.51130   1
   1   0  12 39.5330 3.36735  -2
  -1   0  13 39.5330 3.36735   1
   0   0  13 116.695 1.85080  -2
   0   0  13 116.695 1.85080   1
  -1   0  14 54.3422 2.49515  -2
   1   0  13 54.3422 2.49515   1
  -2   0  14 19.0011 1.27102  -2
   2   0  13 19.0011 1.27102   1
  -3   0  15 67.2526 1.75325  -2
   3   0  13 67.2526 1.75325   1
  -4   0  15 -0.1217 2.07691  -2
   4   0  13 -0.1217 2.07691   1
  -5   0  16 4.12554 1.85303  -2
   5   0  13 4.12554 1.85303   1
   6  -1  10 4.83670 1.67278  -2
  -6   1  13 4.83670 1.67278   1
   5  -1  10 16.7742 1.63386  -2
  -5   1  13 16.7742 1.63386   1
   4  -1  11 42.5913 1.39521  -2
  -4   1  13 42.5913 1.39521   1
  -3   1  13 34.2002 1.20648   1
   2  -1  12 229.601 3.16846  -2
  -2   1  13 229.601 3.16846   1
   1  -1  13 5.87585 1.34772  -2
  -1   1  13 5.87585 1.34772   1
   0  -1  13 36.6801 1.38682  -2
   0   1  13 36.6801 1.38682   1
  -1  -1  14 140.635 2.09411  -2
   1   1  13 140.635 2.09411   1
  -2  -1  14 6.50833 1.33920  -2
   2   1  13 6.50833 1.33920   1
  -3  -1  15 13.0427 1.75030  -2
   3   1  13 13.0427 1.75030   1
   4   1  13 -0.3188 1.15891   1
   6  -2  10 49.5772 1.82457  -2
  -6   2  13 49.5772 1.82457   1
   5  -2  11 9.28812 1.67942  -2
  -5   2  13 9.28812 1.67942   1
   4  -2  11 64.0052 1.73632  -2
  -4   2  13 64.0052 1.73632   1
   3  -2  12 15.5208 1.40323  -2
  -3   2  13 15.5208 1.40323   1
   2  -2  12 224.977 3.04180  -2
  -2   2  13 224.977 3.04180   1
   1  -2  13 47.4736 1.43707  -2
  -1   2  13 47.4736 1.43707   1
   0   2  13 26.0326 1.09598   1
  -1  -2  14 117.520 2.07306  -2
   1   2  13 117.520 2.07306   1
  -2  -2  15 37.9354 1.78615  -2
   2   2  13 37.9354 1.78615   1
  -3  -2  15 3.36559 1.97091  -2
   3   2  13 3.36559 1.97091   1
  -4  -2  16 1.47844 1.90441  -2
   4   2  13 1.47844 1.90441   1
   6  -3  10 8.88870 1.88330  -2
  -6   3  13 8.88870 1.88330   1
   5  -3  11 3.52240 1.39260  -2
  -5   3  13 3.52240 1.39260   1
   4  -3  11 8.10360 1.64531  -2
  -4   3  13 8.10360 1.64531   1
   3  -3  12 19.0712 1.27764  -2
  -3   3  13 19.0712 1.27764   1
  -2   3  13 67.1532 1.70803   1
   1  -3  13 54.5356 1.52669  -2
  -1   3  13 54.5356 1.52669   1
   0  -3  14 20.3929 1.40285  -2
   0   3  13 20.3929 1.40285   1
  -1  -3  14 27.7015 1.50576  -2
   1   3  13 27.7015 1.50576   1
  -2  -3  15 42.1892 1.95121  -2
   2   3  13 42.1892 1.95121   1
  -3  -3  15 21.7085 2.46511  -2
   3   3  13 21.7085 2.46511   1
   6  -4  10 27.1519 4.09375  -2
  -6   4  13 27.1519 4.09375   1
   5  -4  11 8.06560 1.26495  -2
  -5   4  13 8.06560 1.26495   1
   4  -4  12 12.2683 1.89304  -2
  -4   4  13 12.2683 1.89304   1
   3  -4  12 1.98118 1.41329  -2
  -3   4  13 1.98118 1.41329   1
   2  -4  13 132.279 2.53832  -2
  -2   4  13 132.279 2.53832   1
   1  -4  13 15.5778 1.50915  -2
  -1   4  13 15.5778 1.50915   1
   0  -4  14 1.35321 1.19769  -2
   0   4  13 1.35321 1.19769   1
  -1  -4  14 9.84157 3.45631  -2
   1   4  13 9.84157 3.45631   1
  -2  -4  15 8.21699 1.58935  -2
   2   4  13 8.21699 1.58935   1
   5  -5  11 6.95475 1.80396  -2
  -5   5  13 6.95475 1.80396   1
   4  -5  12 14.5919 1.62857  -2
  -4   5  13 14.5919 1.62857   1
   3  -5  12 7.23993 1.85159  -2
  -3   5  13 7.23993 1.85159   1
   2  -5  13 16.7219 1.24867  -2
  -2   5  13 16.7219 1.24867   1
   1  -5  14 17.0148 2.51614  -2
  -1   5  13 17.0148 2.51614   1
   0  -5  14 5.35276 1.28301  -2
   0   5  13 5.35276 1.28301   1
  -1  -5  15 25.8346 1.93253  -2
   1   5  13 25.8346 1.93253   1
   5  -6  11 1.95055 4.46139  -2
  -5   6  13 1.95055 4.46139   1
   4  -6  12 10.1593 1.51509  -2
  -4   6  13 10.1593 1.51509   1
   3  -6  13 29.9985 2.00288  -2
  -3   6  13 29.9985 2.00288   1
   2  -6  13 10.7649 1.62989  -2
  -2   6  13 10.7649 1.62989   1
   1  -6  14 0.28097 1.69873  -2
  -1   6  13 0.28097 1.69873   1
   0  -6  14 9.24259 1.90787  -2
   0   6  13 9.24259 1.90787   1
  -3   7  13 1.51096 1.52898   1
   1   6  12 5.05443 1.59380  -2
  -1  -6  14 5.05443 1.59380   1
   0   6  13 3.35114 2.11538  -2
   0  -6  14 3.35114 2.11538   1
  -1   6  13 0.70067 1.77492  -2
   1  -6  14 0.70067 1.77492   1
  -2   6  14 26.4048 2.14635  -2
   2  -6  14 26.4048 2.14635   1
  -3   6  14 32.4852 2.37624  -2
   3  -6  14 32.4852 2.37624   1
   2   5  12 5.01770 1.70885  -2
  -2  -5  14 5.01770 1.70885   1
   1   5  12 11.2772 1.94405  -2
  -1  -5  14 11.2772 1.94405   1
   0   5  13 8.71439 1.66559  -2
   0  -5  14 8.71439 1.66559   1
  -1   5  13 65.4564 4.76646  -2
   1  -5  14 65.4564 4.76646   1
  -2   5  14 6.34541 1.39912  -2
   2  -5  14 6.34541 1.39912   1
  -3   5  15 55.2799 3.20725  -2
   3  -5  14 55.2799 3.20725   1
  -4   5  15 41.9647 2.61904  -2
   4  -5  14 41.9647 2.61904   1
   3   4  11 10.4800 1.88936  -2
  -3  -4  14 10.4800 1.88936   1
   2   4  12 -0.5426 1.21250  -2
  -2  -4  14 -0.5426 1.21250   1
  -1  -4  14 -0.2280 1.01273   1
   0   4  13 0.54104 1.40943  -2
   0  -4  14 0.54104 1.40943   1
  -1   4  14 59.5728 2.33045  -2
   1  -4  14 59.5728 2.33045   1
  -2   4  14 6.86492 1.61644  -2
   2  -4  14 6.86492 1.61644   1
  -3   4  15 25.6567 1.81968  -2
   3  -4  14 25.6567 1.81968   1
  -4   4  15 7.91257 2.43043  -2
   4  -4  14 7.91257 2.43043   1
   4   3  11 0.62482 1.27468  -2
  -4  -3  14 0.62482 1.27468   1
   3   3  12 46.7024 1.87942  -2
  -3  -3  14 46.7024 1.87942   1
   2   3  12 6.15844 1.20832  -2
  -2  -3  14 6.15844 1.20832   1
   1   3  13 89.4835 2.15526  -2
  -1  -3  14 89.4835 2.15526   1
   0   3  13 73.6503 2.07049  -2
   0  -3  14 73.6503 2.07049   1
  -1   3  14 12.5284 1.27248  -2
   1  -3  14 12.5284 1.27248   1
   2  -3  14 25.2795 1.29537   1
  -3   3  15 44.4703 2.08105  -2
   3  -3  14 44.4703 2.08105   1
  -4   3  16 11.4854 2.37056  -2
   4  -3  14 11.4854 2.37056   1
  -5   3  16 1.71689 3.03230  -2
   5  -3  14 1.71689 3.03230   1
   5   2  11 12.5388 2.85661  -2
  -5  -2  14 12.5388 2.85661   1
   4   2  11 2.73423 1.76759  -2
  -4  -2  14 2.73423 1.76759   1
   3   2  12 28.1555 1.37345  -2
  -3  -2  14 28.1555 1.37345   1
   2   2  12 59.5228 3.97112  -2
  -2  -2  14 59.5228 3.97112   1
   1   2  13 84.6156 1.84258  -2
  -1  -2  14 84.6156 1.84258   1
   0   2  14 133.639 3.63900  -2
   0  -2  14 133.639 3.63900   1
  -1   2  14 17.5850 1.21417  -2
   1  -2  14 17.5850 1.21417   1
  -2   2  15 25.9682 1.43776  -2
   2  -2  14 25.9682 1.43776   1
  -3   2  15 6.29629 1.59519  -2
   3  -2  14 6.29629 1.59519   1
  -4   2  16 13.0154 1.66943  -2
   4  -2  14 13.0154 1.66943   1
  -5   2  16 9.60054 2.62400  -2
   5  -2  14 9.60054 2.62400   1
   5   1  11 5.63970 1.59308  -2
  -5  -1  14 5.63970 1.59308   1
  -4  -1  14 13.3919 1.14528   1
   3   1  12 48.4892 1.57912  -2
  -3  -1  14 48.4892 1.57912   1
   2   1  13 19.1557 1.64861  -2
  -2  -1  14 19.1557 1.64861   1
   1   1  13 361.887 4.48748  -2
  -1  -1  14 361.887 4.48748   1
   0   1  14 101.352 2.11092  -2
   0  -1  14 101.352 2.11092   1
  -1   1  14 22.8212 1.40312  -2
   1  -1  14 22.8212 1.40312   1
  -2   1  15 39.8137 1.24778  -2
   2  -1  14 39.8137 1.24778   1
   3  -1  14 35.9710 1.38804   1
  -4   1  16 23.8307 2.17146  -2
   4  -1  14 23.8307 2.17146   1
   5   0  11 55.5116 2.16461  -2
  -5   0  14 55.5116 2.16461   1
   4   0  12 4.75364 1.56677  -2
  -4   0  14 4.75364 1.56677   1
   3   0  12 47.1193 1.87187  -2
  -3   0  14 47.1193 1.87187   1
   2   0  13 11.6639 1.38466  -2
  -2   0  14 11.6639 1.38466   1
   1   0  13 231.194 6.72792  -2
  -1   0  14 231.194 6.72792   1
   0   0  14 0.31212 0.73475  -2
   0   0  14 0.31212 0.73475   1
  -1   0  15 36.8727 1.89804  -2
   1   0  14 36.8727 1.89804   1
  -2   0  15 48.9709 1.61557  -2
   2   0  14 48.9709 1.61557   1
  -3   0  16 8.67099 1.41988  -2
   3   0  14 8.67099 1.41988   1
  -4   0  16 4.47936 2.25938  -2
   4   0  14 4.47936 2.25938   1
   6  -1  11 6.75089 1.75678  -2
  -6   1  14 6.75089 1.75678   1
   5  -1  11 7.57445 1.63456  -2
  -5   1  14 7.57445 1.63456   1
   4  -1  12 1.33449 1.16972  -2
  -4   1  14 1.33449 1.16972   1
   3  -1  13 -0.4448 3.59909  -2
  -3   1  14 -0.4448 3.59909   1
   2  -1  13 3.86854 1.17604  -2
  -2   1  14 3.86854 1.17604   1
   1  -1  14 122.782 2.43188  -2
  -1   1  14 122.782 2.43188   1
   0  -1  14 127.942 2.15990  -2
   0   1  14 127.942 2.15990   1
  -1  -1  15 64.4479 1.56359  -2
   1   1  14 64.4479 1.56359   1
  -2  -1  15 1.86078 1.41268  -2
   2   1  14 1.86078 1.41268   1
  -3  -1  16 43.8812 2.22357  -2
   3   1  14 43.8812 2.22357   1
   4   1  14 -0.1179 1.35466   1
   6  -2  11 2.10889 1.35144  -2
  -6   2  14 2.10889 1.35144   1
   5  -2  12 -1.1122 1.83991  -2
  -5   2  14 -1.1122 1.83991   1
   4  -2  12 12.7768 1.52845  -2
  -4   2  14 12.7768 1.52845   1
   3  -2  13 3.70542 1.48290  -2
  -3   2  14 3.70542 1.48290   1
   2  -2  13 60.8328 1.97508  -2
  -2   2  14 60.8328 1.97508   1
   1  -2  14 80.9548 1.77217  -2
  -1   2  14 80.9548 1.77217   1
   0  -2  14 42.0041 2.53626  -2
   0   2  14 42.0041 2.53626   1
  -1  -2  15 1.11251 1.01897  -2
   1   2  14 1.11251 1.01897   1
  -2  -2  16 10.4018 1.51758  -2
   2   2  14 10.4018 1.51758   1
  -3  -2  16 15.7626 2.19990  -2
   3   2  14 15.7626 2.19990   1
   6  -3  11 25.6938 2.04872  -2
  -6   3  14 25.6938 2.04872   1
   5  -3  12 15.8527 1.52039  -2
  -5   3  14 15.8527 1.52039   1
   4  -3  12 9.18932 1.66925  -2
  -4   3  14 9.18932 1.66925   1
   3  -3  13 20.0619 1.35228  -2
  -3   3  14 20.0619 1.35228   1
  -2   3  14 1.48054 0.86864   1
   1  -3  14 2.51018 1.17027  -2
  -1   3  14 2.51018 1.17027   1
   0  -3  15 65.7085 2.09240  -2
   0   3  14 65.7085 2.09240   1
  -1  -3  15 14.7201 1.51645  -2
   1   3  14 14.7201 1.51645   1
  -2  -3  16 38.8659 2.55982  -2
   2   3  14 38.8659 2.55982   1
  -3  -3  16 2.42291 2.36478  -2
   3   3  14 2.42291 2.36478   1
   5  -4  12 74.0073 1.96882  -2
  -5   4  14 74.0073 1.96882   1
   4  -4  13 1.91563 1.70184  -2
  -4   4  14 1.91563 1.70184   1
   3  -4  13 42.7484 1.86840  -2
  -3   4  14 42.7484 1.86840   1
   2  -4  14 21.6039 1.67992  -2
  -2   4  14 21.6039 1.67992   1
   1  -4  14 16.1950 1.64577  -2
  -1   4  14 16.1950 1.64577   1
   0  -4  15 16.9813 1.43260  -2
   0   4  14 16.9813 1.43260   1
  -1  -4  15 10.8070 2.41611  -2
   1   4  14 10.8070 2.41611   1
  -2  -4  16 24.8213 2.20765  -2
   2   4  14 24.8213 2.20765   1
   5  -5  12 10.2927 1.80393  -2
  -5   5  14 10.2927 1.80393   1
   4  -5  13 3.38403 1.57832  -2
  -4   5  14 3.38403 1.57832   1
   3  -5  13 31.8824 2.08712  -2
  -3   5  14 31.8824 2.08712   1
   2  -5  14 12.0564 1.12101  -2
  -2   5  14 12.0564 1.12101   1
   1  -5  15 18.5503 2.60029  -2
  -1   5  14 18.5503 2.60029   1
   0  -5  15 38.0178 1.76080  -2
   0   5  14 38.0178 1.76080   1
  -1  -5  16 3.45360 1.99171  -2
   1   5  14 3.45360 1.99171   1
   4  -6  13 1.82711 1.46881  -2
  -4   6  14 1.82711 1.46881   1
   3  -6  14 7.74123 1.87703  -2
  -3   6  14 7.74123 1.87703   1
   2  -6  14 14.6509 1.70468  -2
  -2   6  14 14.6509 1.70468   1
   1  -6  15 -1.1682 1.77903  -2
  -1   6  14 -1.1682 1.77903   1
   0  -6  15 2.19676 1.25828   1
  -1   6  14 -0.8536 1.82978  -2
   1  -6  15 -0.8536 1.82978   1
  -2   6  15 22.1603 2.16055  -2
   2  -6  15 22.1603 2.16055   1
  -2  -5  15 10.0010 1.38649   1
   1   5  13 4.35459 1.94808  -2
  -1  -5  15 4.35459 1.94808   1
   0   5  14 27.2389 1.93873  -2
   0  -5  15 27.2389 1.93873   1
  -1   5  14 10.2507 4.08219  -2
   1  -5  15 10.2507 4.08219   1
  -2   5  15 6.35685 1.43063  -2
   2  -5  15 6.35685 1.43063   1
  -3   5  16 23.1537 2.84972  -2
   3  -5  15 23.1537 2.84972   1
   3   4  12 6.28003 1.95668  -2
  -3  -4  15 6.28003 1.95668   1
   2   4  13 12.0574 1.39156  -2
  -2  -4  15 12.0574 1.39156   1
  -1  -4  15 14.7789 1.44213   1
   0   4  14 29.3117 1.82795  -2
   0  -4  15 29.3117 1.82795   1
  -1   4  15 121.203 3.02011  -2
   1  -4  15 121.203 3.02011   1
  -2   4  15 42.6155 2.06660  -2
   2  -4  15 42.6155 2.06660   1
  -3   4  16 54.7261 2.72693  -2
   3  -4  15 54.7261 2.72693   1
  -4   4  16 18.7392 2.57497  -2
   4  -4  15 18.7392 2.57497   1
   4   3  12 4.68561 1.53899  -2
  -4  -3  15 4.68561 1.53899   1
   3   3  13 22.8159 1.78013  -2
  -3  -3  15 22.8159 1.78013   1
   2   3  13 30.3816 1.67616  -2
  -2  -3  15 30.3816 1.67616   1
   1   3  14 25.6366 1.66699  -2
  -1  -3  15 25.6366 1.66699   1
   0   3  14 85.8301 2.24349  -2
   0  -3  15 85.8301 2.24349   1
  -1   3  15 6.23943 1.25312  -2
   1  -3  15 6.23943 1.25312   1
   2  -3  15 18.1965 1.23149   1
  -3   3  16 15.1742 1.76748  -2
   3  -3  15 15.1742 1.76748   1
  -4   3  17 -0.2066 3.45221  -2
   4  -3  15 -0.2066 3.45221   1
   4   2  12 12.4210 1.93588  -2
  -4  -2  15 12.4210 1.93588   1
   3   2  13 -0.2837 1.37492  -2
  -3  -2  15 -0.2837 1.37492   1
   2   2  13 51.8654 4.10075  -2
  -2  -2  15 51.8654 4.10075   1
   1   2  14 7.15825 1.11032  -2
  -1  -2  15 7.15825 1.11032   1
   0  -2  15 187.599 2.90325   1
  -1   2  15 42.4313 1.61107  -2
   1  -2  15 42.4313 1.61107   1
  -2   2  16 133.920 2.34685  -2
   2  -2  15 133.920 2.34685   1
  -3   2  16 43.4039 1.90150  -2
   3  -2  15 43.4039 1.90150   1
  -4   2  17 0.19883 1.81746  -2
   4  -2  15 0.19883 1.81746   1
   5   1  12 7.85260 1.68707  -2
  -5  -1  15 7.85260 1.68707   1
  -4  -1  15 24.9138 1.43241   1
   3   1  13 6.28568 1.23543  -2
  -3  -1  15 6.28568 1.23543   1
   2   1  14 -2.8222 1.56818  -2
  -2  -1  15 -2.8222 1.56818   1
   1   1  14 25.5556 1.56569  -2
  -1  -1  15 25.5556 1.56569   1
   0   1  15 2.53424 1.37336  -2
   0  -1  15 2.53424 1.37336   1
  -1   1  15 141.689 2.44632  -2
   1  -1  15 141.689 2.44632   1
  -2   1  16 3.81411 1.23680  -2
   2  -1  15 3.81411 1.23680   1
   3  -1  15 1.04099 0.88971   1
  -4   1  17 20.3371 2.28666  -2
   4  -1  15 20.3371 2.28666   1
   5   0  12 -0.3762 1.66114  -2
  -5   0  15 -0.3762 1.66114   1
   4   0  13 3.93473 1.64754  -2
  -4   0  15 3.93473 1.64754   1
   3   0  13 35.2992 1.87348  -2
  -3   0  15 35.2992 1.87348   1
   2   0  14 81.3713 2.03241  -2
  -2   0  15 81.3713 2.03241   1
   1   0  14 43.4281 4.12958  -2
  -1   0  15 43.4281 4.12958   1
   0   0  15 30.6148 1.21214  -2
   0   0  15 30.6148 1.21214   1
  -1   0  16 61.0992 1.95336  -2
   1   0  15 61.0992 1.95336   1
  -2   0  16 3.12073 1.43476  -2
   2   0  15 3.12073 1.43476   1
  -3   0  17 38.4098 2.20984  -2
   3   0  15 38.4098 2.20984   1
  -4   0  17 4.73572 2.40578  -2
   4   0  15 4.73572 2.40578   1
   5  -1  12 21.0804 1.90419  -2
  -5   1  15 21.0804 1.90419   1
   4  -1  13 9.43014 1.33854  -2
  -4   1  15 9.43014 1.33854   1
   3  -1  14 8.52491 2.66859  -2
  -3   1  15 8.52491 2.66859   1
   2  -1  14 9.58489 1.28129  -2
  -2   1  15 9.58489 1.28129   1
   1  -1  15 30.6540 1.77115  -2
  -1   1  15 30.6540 1.77115   1
   0  -1  15 3.08689 1.26884  -2
   0   1  15 3.08689 1.26884   1
  -1  -1  16 2.48434 1.38488  -2
   1   1  15 2.48434 1.38488   1
  -2  -1  16 14.3176 1.63109  -2
   2   1  15 14.3176 1.63109   1
  -3  -1  17 7.87489 1.97647  -2
   3   1  15 7.87489 1.97647   1
   5  -2  13 26.0534 2.12996  -2
  -5   2  15 26.0534 2.12996   1
   4  -2  13 56.1344 1.99552  -2
  -4   2  15 56.1344 1.99552   1
   3  -2  14 34.0254 1.80041  -2
  -3   2  15 34.0254 1.80041   1
   2  -2  14 5.08745 1.57417  -2
  -2   2  15 5.08745 1.57417   1
   1  -2  15 13.9486 1.35744  -2
  -1   2  15 13.9486 1.35744   1
   0  -2  15 81.0796 2.53745  -2
   0   2  15 81.0796 2.53745   1
  -1  -2  16 9.76998 1.16447  -2
   1   2  15 9.76998 1.16447   1
  -2  -2  17 3.21422 2.08801  -2
   2   2  15 3.21422 2.08801   1
  -3  -2  17 7.08263 2.15066  -2
   3   2  15 7.08263 2.15066   1
   5  -3  13 0.71180 1.54851  -2
  -5   3  15 0.71180 1.54851   1
   4  -3  13 49.0196 2.25433  -2
  -4   3  15 49.0196 2.25433   1
   3  -3  14 19.8759 1.41632  -2
  -3   3  15 19.8759 1.41632   1
   2  -3  15 10.8085 2.63883  -2
  -2   3  15 10.8085 2.63883   1
   1  -3  15 25.0695 1.51067  -2
  -1   3  15 25.0695 1.51067   1
   0  -3  16 21.9739 1.83092  -2
   0   3  15 21.9739 1.83092   1
  -1  -3  16 54.0587 1.89993  -2
   1   3  15 54.0587 1.89993   1
  -2  -3  17 11.8650 2.29893  -2
   2   3  15 11.8650 2.29893   1
   5  -4  13 17.1016 1.54085  -2
  -5   4  15 17.1016 1.54085   1
   4  -4  14 -0.9464 1.88213  -2
  -4   4  15 -0.9464 1.88213   1
   3  -4  14 12.1938 1.68159  -2
  -3   4  15 12.1938 1.68159   1
   2  -4  15 19.2091 1.72435  -2
  -2   4  15 19.2091 1.72435   1
   1  -4  15 27.3505 1.80406  -2
  -1   4  15 27.3505 1.80406   1
   0  -4  16 3.66612 1.40232  -2
   0   4  15 3.66612 1.40232   1
  -1  -4  16 20.6187 3.91153  -2
   1   4  15 20.6187 3.91153   1
   4  -5  14 10.3160 1.69433  -2
  -4   5  15 10.3160 1.69433   1
   3  -5  14 30.1197 2.12436  -2
  -3   5  15 30.1197 2.12436   1
   2  -5  15 14.5539 1.22162  -2
  -2   5  15 14.5539 1.22162   1
   1  -5  16 12.6539 2.61732  -2
  -1   5  15 12.6539 2.61732   1
   0  -5  16 2.89211 1.51697  -2
   0   5  15 2.89211 1.51697   1
  -3   6  15 4.52452 1.58187   1
   2  -6  15 4.67887 1.95387  -2
  -2   6  15 4.67887 1.95387   1
   1   5  14 1.38778 2.05886  -2
  -1  -5  16 1.38778 2.05886   1
   0   5  15 11.3103 1.83862  -2
   0  -5  16 11.3103 1.83862   1
  -1   5  15 45.9404 4.91823  -2
   1  -5  16 45.9404 4.91823   1
  -2   5  16 1.33039 1.29949  -2
   2  -5  16 1.33039 1.29949   1
   2   4  14 21.5121 1.75798  -2
  -2  -4  16 21.5121 1.75798   1
  -1  -4  16 11.2669 1.36716   1
   0   4  15 14.9247 1.76717  -2
   0  -4  16 14.9247 1.76717   1
  -1   4  16 55.7998 2.43145  -2
   1  -4  16 55.7998 2.43145   1
  -2   4  16 26.7070 1.95928  -2
   2  -4  16 26.7070 1.95928   1
  -3   4  17 46.0833 2.75362  -2
   3  -4  16 46.0833 2.75362   1
   3   3  14 15.8455 2.02485  -2
  -3  -3  16 15.8455 2.02485   1
   2   3  14 14.0601 1.58068  -2
  -2  -3  16 14.0601 1.58068   1
   1   3  15 8.39397 1.59408  -2
  -1  -3  16 8.39397 1.59408   1
   0   3  15 20.5396 1.77497  -2
   0  -3  16 20.5396 1.77497   1
  -1   3  16 26.7584 1.52929  -2
   1  -3  16 26.7584 1.52929   1
   2  -3  16 2.04530 0.94117   1
  -3   3  17 16.1814 1.83525  -2
   3  -3  16 16.1814 1.83525   1
   4   2  13 -2.1757 1.85211  -2
  -4  -2  16 -2.1757 1.85211   1
   3   2  14 12.1908 1.54547  -2
  -3  -2  16 12.1908 1.54547   1
   2   2  14 5.14313 3.32816  -2
  -2  -2  16 5.14313 3.32816   1
   1   2  15 4.13633 1.08533  -2
  -1  -2  16 4.13633 1.08533   1
   0  -2  16 21.9903 1.35304   1
  -1   2  16 3.56431 1.32121  -2
   1  -2  16 3.56431 1.32121   1
  -2   2  17 63.5204 2.37198  -2
   2  -2  16 63.5204 2.37198   1
  -3   2  17 1.81977 1.62938  -2
   3  -2  16 1.81977 1.62938   1
   4  -2  16 12.9681 1.86592   1
  -4  -1  16 4.54355 1.02437   1
   3   1  14 72.3205 1.95170  -2
  -3  -1  16 72.3205 1.95170   1
   2   1  15 18.9322 1.81498  -2
  -2  -1  16 18.9322 1.81498   1
   1   1  15 0.14028 1.41038  -2
  -1  -1  16 0.14028 1.41038   1
   0   1  16 9.85914 1.49698  -2
   0  -1  16 9.85914 1.49698   1
  -1   1  16 63.5312 2.04903  -2
   1  -1  16 63.5312 2.04903   1
  -2   1  17 18.2572 1.45921  -2
   2  -1  16 18.2572 1.45921   1
   3  -1  16 11.4865 1.11964   1
   5   0  13 22.0986 1.99451  -2
  -5   0  16 22.0986 1.99451   1
   4   0  14 9.57174 1.80349  -2
  -4   0  16 9.57174 1.80349   1
   3   0  14 34.6216 1.97315  -2
  -3   0  16 34.6216 1.97315   1
   2   0  15 7.93824 1.45833  -2
  -2   0  16 7.93824 1.45833   1
   1   0  15 35.0572 2.87634  -2
  -1   0  16 35.0572 2.87634   1
   0   0  16 2.52960 1.04157  -2
   0   0  16 2.52960 1.04157   1
  -1   0  17 21.3598 1.74056  -2
   1   0  16 21.3598 1.74056   1
  -2   0  17 9.21298 1.46889  -2
   2   0  16 9.21298 1.46889   1
  -3   0  18 3.35720 1.98313  -2
   3   0  16 3.35720 1.98313   1
   5  -1  13 24.2469 2.09066  -2
  -5   1  16 24.2469 2.09066   1
   4  -1  14 50.7777 1.79590  -2
  -4   1  16 50.7777 1.79590   1
   3  -1  15 -0.9083 3.85001  -2
  -3   1  16 -0.9083 3.85001   1
   2  -1  15 14.9774 1.49129  -2
  -2   1  16 14.9774 1.49129   1
   1  -1  16 21.9497 1.79203  -2
  -1   1  16 21.9497 1.79203   1
   0  -1  16 20.4897 1.57860  -2
   0   1  16 20.4897 1.57860   1
  -1  -1  17 18.0527 1.58318  -2
   1   1  16 18.0527 1.58318   1
  -2  -1  17 3.18483 1.61490  -2
   2   1  16 3.18483 1.61490   1
  -3  -1  18 6.69905 2.09493  -2
   3   1  16 6.69905 2.09493   1
   5  -2  14 3.72125 2.04350  -2
  -5   2  16 3.72125 2.04350   1
   4  -2  14 8.39443 1.66331  -2
  -4   2  16 8.39443 1.66331   1
   3  -2  15 16.2299 1.76742  -2
  -3   2  16 16.2299 1.76742   1
   2  -2  15 69.6508 2.19102  -2
  -2   2  16 69.6508 2.19102   1
   1  -2  16 4.96880 1.34238  -2
  -1   2  16 4.96880 1.34238   1
   0  -2  16 18.0303 2.56017  -2
   0   2  16 18.0303 2.56017   1
  -1  -2  17 2.29460 1.16684  -2
   1   2  16 2.29460 1.16684   1
  -2  -2  18 1.70820 2.13242  -2
   2   2  16 1.70820 2.13242   1
   5  -3  14 3.33051 1.68185  -2
  -5   3  16 3.33051 1.68185   1
   4  -3  14 7.18014 1.95021  -2
  -4   3  16 7.18014 1.95021   1
   3  -3  15 10.4742 1.34346  -2
  -3   3  16 10.4742 1.34346   1
   2  -3  16 85.8705 2.84315  -2
  -2   3  16 85.8705 2.84315   1
   1  -3  16 6.22714 1.40780  -2
  -1   3  16 6.22714 1.40780   1
   0  -3  17 8.45293 1.91202  -2
   0   3  16 8.45293 1.91202   1
  -1  -3  17 0.10240 1.53314  -2
   1   3  16 0.10240 1.53314   1
  -2  -3  18 1.11055 3.65131  -2
   2   3  16 1.11055 3.65131   1
   4  -4  15 22.4749 2.17462  -2
  -4   4  16 22.4749 2.17462   1
   3  -4  15 16.2541 1.79061  -2
  -3   4  16 16.2541 1.79061   1
   2  -4  16 37.1848 1.92747  -2
  -2   4  16 37.1848 1.92747   1
   1  -4  16 12.7880 2.08105  -2
  -1   4  16 12.7880 2.08105   1
   0  -4  17 15.1584 1.59326  -2
   0   4  16 15.1584 1.59326   1
  -1  -4  17 12.4513 4.01152  -2
   1   4  16 12.4513 4.01152   1
   3  -5  15 14.3458 2.09567  -2
  -3   5  16 14.3458 2.09567   1
   2  -5  16 -0.5758 1.19365  -2
  -2   5  16 -0.5758 1.19365   1
  -1   5  16 38.0705 1.88753   1
  -1  -4  17 13.0798 1.48068   1
   0   4  16 3.31423 1.68438  -2
   0  -4  17 3.31423 1.68438   1
  -1   4  17 46.5444 2.44018  -2
   1  -4  17 46.5444 2.44018   1
  -2   4  17 9.16600 1.87177  -2
   2  -4  17 9.16600 1.87177   1
   2   3  15 14.3708 1.67506  -2
  -2  -3  17 14.3708 1.67506   1
   1   3  16 2.17742 1.64487  -2
  -1  -3  17 2.17742 1.64487   1
   0   3  16 4.21055 1.70936  -2
   0  -3  17 4.21055 1.70936   1
  -1   3  17 -0.3311 1.32964  -2
   1  -3  17 -0.3311 1.32964   1
   2  -3  17 9.28616 1.12014   1
  -3   3  18 13.0542 1.85678  -2
   3  -3  17 13.0542 1.85678   1
   3   2  15 2.83104 1.80201  -2
  -3  -2  17 2.83104 1.80201   1
   2   2  15 21.8160 2.00262  -2
  -2  -2  17 21.8160 2.00262   1
   1   2  16 -0.9968 1.05487  -2
  -1  -2  17 -0.9968 1.05487   1
   0   2  17 -2.6862 3.81904  -2
   0  -2  17 -2.6862 3.81904   1
  -1   2  17 6.71293 1.43668  -2
   1  -2  17 6.71293 1.43668   1
  -2   2  18 14.7582 1.99313  -2
   2  -2  17 14.7582 1.99313   1
  -3   2  18 6.05699 1.75843  -2
   3  -2  17 6.05699 1.75843   1
  -4  -1  17 11.4191 1.22799   1
   3   1  15 11.3958 1.41705  -2
  -3  -1  17 11.3958 1.41705   1
   2   1  16 -0.1877 1.77144  -2
  -2  -1  17 -0.1877 1.77144   1
   1   1  16 18.4501 1.64280  -2
  -1  -1  17 18.4501 1.64280   1
   0   1  17 0.72220 1.49489  -2
   0  -1  17 0.72220 1.49489   1
  -1   1  17 6.08565 1.63488  -2
   1  -1  17 6.08565 1.63488   1
  -2   1  18 13.8214 1.45322  -2
   2  -1  17 13.8214 1.45322   1
   3  -1  17 4.17958 1.02637   1
   4   0  15 21.7899 1.96137  -2
  -4   0  17 21.7899 1.96137   1
   3   0  15 34.7792 2.01747  -2
  -3   0  17 34.7792 2.01747   1
   2   0  16 17.6780 1.59184  -2
  -2   0  17 17.6780 1.59184   1
   1   0  16 3.89447 2.13485  -2
  -1   0  17 3.89447 2.13485   1
   0   0  17 2.65635 1.09634  -2
   0   0  17 2.65635 1.09634   1
  -1   0  18 11.3305 2.06851  -2
   1   0  17 11.3305 2.06851   1
  -2   0  18 38.2347 1.74854  -2
   2   0  17 38.2347 1.74854   1
   3   0  17 0.09169 1.19880   1
   4  -1  15 11.8093 1.48985  -2
  -4   1  17 11.8093 1.48985   1
   3  -1  16 13.4053 3.01423  -2
  -3   1  17 13.4053 3.01423   1
   2  -1  16 82.1007 2.16774  -2
  -2   1  17 82.1007 2.16774   1
   1  -1  17 21.6704 1.88820  -2
  -1   1  17 21.6704 1.88820   1
   0  -1  17 8.32682 1.51646  -2
   0   1  17 8.32682 1.51646   1
  -1  -1  18 5.84788 1.60591  -2
   1   1  17 5.84788 1.60591   1
  -2  -1  18 -1.5533 1.75693  -2
   2   1  17 -1.5533 1.75693   1
   4  -2  15 2.47149 1.67834  -2
  -4   2  17 2.47149 1.67834   1
   3  -2  16 0.24098 1.69255  -2
  -3   2  17 0.24098 1.69255   1
   2  -2  16 27.2743 1.95123  -2
  -2   2  17 27.2743 1.95123   1
   1  -2  17 24.5535 1.59899  -2
  -1   2  17 24.5535 1.59899   1
   0  -2  17 2.68603 2.52518  -2
   0   2  17 2.68603 2.52518   1
  -1  -2  18 2.83540 1.18950  -2
   1   2  17 2.83540 1.18950   1
   2   2  17 15.9499 1.61949   1
   4  -3  15 4.73060 1.99460  -2
  -4   3  17 4.73060 1.99460   1
   3  -3  16 85.7671 2.19683  -2
  -3   3  17 85.7671 2.19683   1
   2  -3  17 18.5340 2.33921  -2
  -2   3  17 18.5340 2.33921   1
   1  -3  17 1.37542 1.41935  -2
  -1   3  17 1.37542 1.41935   1
   0  -3  18 18.1092 2.08497  -2
   0   3  17 18.1092 2.08497   1
  -1  -3  18 23.5276 1.81725  -2
   1   3  17 23.5276 1.81725   1
   3  -4  16 27.2110 1.93811  -2
  -3   4  17 27.2110 1.93811   1
   2  -4  17 5.53671 1.73094  -2
  -2   4  17 5.53671 1.73094   1
   1  -4  17 10.7873 2.15099  -2
  -1   4  17 10.7873 2.15099   1
   0   4  17 -1.2402 1.26819   1
   0   4  17 1.17563 2.98626  -2
   0  -4  18 1.17563 2.98626   1
   2   3  16 4.47178 2.33930  -2
  -2  -3  18 4.47178 2.33930   1
   1   3  17 16.2131 1.82965  -2
  -1  -3  18 16.2131 1.82965   1
   0   3  17 82.6674 2.51466  -2
   0  -3  18 82.6674 2.51466   1
  -1   3  18 1.44756 1.41871  -2
   1  -3  18 1.44756 1.41871   1
  -2   3  18 10.3165 3.86264  -2
   2  -3  18 10.3165 3.86264   1
   2   2  16 15.3521 2.03437  -2
  -2  -2  18 15.3521 2.03437   1
   1   2  17 6.65227 1.22144  -2
  -1  -2  18 6.65227 1.22144   1
   0   2  18 -4.2289 3.66666  -2
   0  -2  18 -4.2289 3.66666   1
  -1   2  18 1.98739 1.43297  -2
   1  -2  18 1.98739 1.43297   1
  -2   2  19 2.64723 1.95325  -2
   2  -2  18 2.64723 1.95325   1
   3   1  16 17.1719 1.55104  -2
  -3  -1  18 17.1719 1.55104   1
   2   1  17 5.30410 1.87797  -2
  -2  -1  18 5.30410 1.87797   1
   1   1  17 17.6416 1.73976  -2
  -1  -1  18 17.6416 1.73976   1
   0   1  18 26.4171 1.80868  -2
   0  -1  18 26.4171 1.80868   1
  -1   1  18 1.87946 1.73076  -2
   1  -1  18 1.87946 1.73076   1
  -2   1  19 5.88794 1.59247  -2
   2  -1  18 5.88794 1.59247   1
   3   0  16 2.95005 1.82268  -2
  -3   0  18 2.95005 1.82268   1
   2   0  17 16.1868 1.65130  -2
  -2   0  18 16.1868 1.65130   1
   1   0  17 40.0798 2.57144  -2
  -1   0  18 40.0798 2.57144   1
   0   0  18 -0.1539 1.11116  -2
   0   0  18 -0.1539 1.11116   1
  -1   0  19 2.30666 2.13745  -2
   1   0  18 2.30666 2.13745   1
  -2   0  19 4.29431 1.51151  -2
   2   0  18 4.29431 1.51151   1
  -4   1  18 6.96785 1.23807   1
   3  -1  17 -1.9085 2.86402  -2
  -3   1  18 -1.9085 2.86402   1
   2  -1  17 46.1793 1.92721  -2
  -2   1  18 46.1793 1.92721   1
   1  -1  18 2.10984 1.84216  -2
  -1   1  18 2.10984 1.84216   1
   0  -1  18 63.2713 2.08259  -2
   0   1  18 63.2713 2.08259   1
  -1  -1  19 2.94536 1.72019  -2
   1   1  18 2.94536 1.72019   1
   3  -2  17 4.04461 1.88061  -2
  -3   2  18 4.04461 1.88061   1
   2  -2  17 7.16690 1.87983  -2
  -2   2  18 7.16690 1.87983   1
   1  -2  18 2.31185 1.43227  -2
  -1   2  18 2.31185 1.43227   1
   0  -2  18 2.63435 2.60570  -2
   0   2  18 2.63435 2.60570   1
  -1  -2  19 10.3564 1.43072  -2
   1   2  18 10.3564 1.43072   1
   3  -3  17 3.37682 1.38332  -2
  -3   3  18 3.37682 1.38332   1
   2  -3  18 14.8657 2.42233  -2
  -2   3  18 14.8657 2.42233   1
   1  -3  18 3.01846 1.73498  -2
  -1   3  18 3.01846 1.73498   1
   0   3  18 0.64690 1.06783   1
   1   2  18 6.33285 1.28137  -2
  -1  -2  19 6.33285 1.28137   1
   0  -2  19 47.1900 1.81563   1
  -1   2  19 0.31958 1.50936  -2
   1  -2  19 0.31958 1.50936   1
  -2  -1  19 7.48709 1.19295   1
   1   1  18 4.07785 1.71872  -2
  -1  -1  19 4.07785 1.71872   1
   0   1  19 27.4877 1.88118  -2
   0  -1  19 27.4877 1.88118   1
  -1   1  19 34.1548 2.45535  -2
   1  -1  19 34.1548 2.45535   1
   2   0  18 1.46525 1.57928  -2
  -2   0  19 1.46525 1.57928   1
   1   0  18 11.8134 2.05836  -2
  -1   0  19 11.8134 2.05836   1
   0   0  19 2.74638 1.18164  -2
   0   0  19 2.74638 1.18164   1
   1   0  19 7.40636 1.30858   1
  -3   1  19 0.54999 2.25061   1
   2  -1  18 11.8046 1.64737  -2
  -2   1  19 11.8046 1.64737   1
   1  -1  19 10.7917 1.97556  -2
  -1   1  19 10.7917 1.97556   1
   0  -1  19 13.2799 2.11413  -2
   0   1  19 13.2799 2.11413   1
   2  -2  18 -1.7487 1.85754  -2
  -2   2  19 -1.7487 1.85754   1
   1  -2  19 4.55209 1.50662  -2
  -1   2  19 4.55209 1.50662   1
   0   0   0    0.00    0.00   0
;
_shelx_hkl_checksum               11748
_shelx_SHELXL_version_number      '2014/7'
_olex2_submission_special_instructions 'No special instructions were received'
loop_
  _twin_individual_id
  _twin_individual_mass_fraction_refined
 1 0.8328(14)
 2 0.1672(14)

